pglib-opf-21.07/api/pglib_opf_case30000_goc__api.m
%%%%%%%%%%%%%%%%%%%%%%%%%%%%%%%%%%%%%%%%%%%%%%%%%%%%%%%%%%%%%%%%%%%%%%%%%%%
%%%%                                                                  %%%%%
%%%%    IEEE PES Power Grid Library - Optimal Power Flow - v21.07     %%%%%
%%%%          (https://github.com/power-grid-lib/pglib-opf)           %%%%%
%%%%             Benchmark Group - Active Power Increase              %%%%%
%%%%                         29 - July - 2021                         %%%%%
%%%%                                                                  %%%%%
%%%%%%%%%%%%%%%%%%%%%%%%%%%%%%%%%%%%%%%%%%%%%%%%%%%%%%%%%%%%%%%%%%%%%%%%%%%
function mpc = pglib_opf_case30000_goc__api
mpc.version = '2';
mpc.baseMVA = 100.0;

%% bus data
%	bus_i	type	Pd	Qd	Gs	Bs	area	Vm	Va	baseKV	zone	Vmax	Vmin
mpc.bus = [
	1	 1	 4.94	 0.80	 0.0	 -10.089936602	 1	    1.00000	    0.00000	 138.0	 1	    1.10000	    0.90000;
	2	 1	 1.60	 0.12	 0.0	 0.0	 1	    1.00000	    0.00000	 138.0	 1	    1.10000	    0.90000;
	3	 1	 3.77	 0.63	 0.0	 0.0	 1	    1.00000	    0.00000	 138.0	 1	    1.10000	    0.90000;
	4	 1	 3.72	 0.39	 0.0	 0.0	 1	    1.00000	    0.00000	 138.0	 1	    1.10000	    0.90000;
	5	 1	 0.0	 0.0	 0.0	 0.0	 1	    1.00000	    0.00000	 138.0	 1	    1.10000	    0.90000;
	6	 1	 5.97	 0.34	 0.0	 0.0	 1	    1.00000	    0.00000	 138.0	 1	    1.10000	    0.90000;
	7	 1	 0.0	 0.0	 0.0	 0.0	 1	    1.00000	    0.00000	 138.0	 1	    1.10000	    0.90000;
	8	 1	 0.0	 0.0	 0.0	 0.0	 1	    1.00000	    0.00000	 138.0	 1	    1.10000	    0.90000;
	9	 1	 0.0	 0.0	 0.0	 0.0	 1	    1.00000	    0.00000	 138.0	 1	    1.10000	    0.90000;
	10	 1	 7.30	 1.32	 0.0	 0.0	 1	    1.00000	    0.00000	 138.0	 1	    1.10000	    0.90000;
	11	 1	 0.0	 0.0	 0.0	 0.0	 1	    1.00000	    0.00000	 138.0	 1	    1.10000	    0.90000;
	12	 1	 7.30	 1.36	 0.0	 0.0	 1	    1.00000	    0.00000	 138.0	 1	    1.10000	    0.90000;
	13	 1	 0.0	 0.0	 0.0	 0.0	 1	    1.00000	    0.00000	 138.0	 1	    1.10000	    0.90000;
	14	 1	 0.0	 0.0	 0.0	 0.0	 1	    1.00000	    0.00000	 138.0	 1	    1.10000	    0.90000;
	15	 1	 0.0	 0.0	 0.0	 0.0	 1	    1.00000	    0.00000	 138.0	 1	    1.10000	    0.90000;
	16	 1	 7.30	 1.15	 0.0	 0.0	 1	    1.00000	    0.00000	 138.0	 1	    1.10000	    0.90000;
	17	 1	 0.0	 0.0	 0.0	 0.0	 1	    1.00000	    0.00000	 138.0	 1	    1.10000	    0.90000;
	18	 1	 0.0	 0.0	 0.0	 0.0	 1	    1.00000	    0.00000	 138.0	 1	    1.10000	    0.90000;
	19	 1	 16.90	 2.17	 0.0	 0.0	 1	    1.00000	    0.00000	 138.0	 1	    1.10000	    0.90000;
	20	 1	 0.0	 0.0	 0.0	 0.0	 1	    1.00000	    0.00000	 138.0	 1	    1.10000	    0.90000;
	21	 1	 0.0	 0.0	 0.0	 0.0	 1	    1.00000	    0.00000	 138.0	 1	    1.10000	    0.90000;
	22	 1	 7.19	 1.17	 0.0	 0.0	 1	    1.00000	    0.00000	 138.0	 1	    1.10000	    0.90000;
	23	 1	 5.20	 1.14	 0.0	 0.0	 1	    1.00000	    0.00000	 138.0	 1	    1.10000	    0.90000;
	24	 1	 8.69	 0.92	 0.0	 0.0	 1	    1.00000	    0.00000	 138.0	 1	    1.10000	    0.90000;
	25	 1	 0.0	 0.0	 0.0	 0.0	 1	    1.00000	    0.00000	 138.0	 1	    1.10000	    0.90000;
	26	 1	 0.0	 0.0	 0.0	 0.0	 1	    1.00000	    0.00000	 138.0	 1	    1.10000	    0.90000;
	27	 1	 8.15	 1.02	 0.0	 0.0	 1	    1.00000	    0.00000	 138.0	 1	    1.10000	    0.90000;
	28	 1	 0.0	 0.0	 0.0	 0.0	 1	    1.00000	    0.00000	 138.0	 1	    1.10000	    0.90000;
	29	 1	 0.0	 0.0	 0.0	 -1.23865450627	 1	    1.00000	    0.00000	 138.0	 1	    1.10000	    0.90000;
	30	 1	 5.00	 0.48	 0.0	 0.0	 1	    1.00000	    0.00000	 138.0	 1	    1.10000	    0.90000;
	31	 1	 0.0	 0.0	 0.0	 -11.6319288661	 1	    1.00000	    0.00000	 138.0	 1	    1.10000	    0.90000;
	32	 1	 5.61	 0.62	 0.0	 0.0	 1	    1.00000	    0.00000	 138.0	 1	    1.10000	    0.90000;
	33	 1	 0.0	 0.0	 0.0	 0.0	 1	    1.00000	    0.00000	 138.0	 1	    1.10000	    0.90000;
	34	 1	 0.0	 0.0	 0.0	 0.0	 1	    1.00000	    0.00000	 138.0	 1	    1.10000	    0.90000;
	35	 1	 8.23	 1.19	 0.0	 0.0	 1	    1.00000	    0.00000	 138.0	 1	    1.10000	    0.90000;
	36	 1	 7.94	 0.15	 0.0	 0.0	 1	    1.00000	    0.00000	 138.0	 1	    1.10000	    0.90000;
	37	 1	 7.32	 2.34	 0.0	 0.0	 1	    1.00000	    0.00000	 138.0	 1	    1.10000	    0.90000;
	38	 1	 0.0	 0.0	 0.0	 0.0	 1	    1.00000	    0.00000	 138.0	 1	    1.10000	    0.90000;
	39	 1	 0.0	 0.0	 0.0	 0.0	 1	    1.00000	    0.00000	 138.0	 1	    1.10000	    0.90000;
	40	 1	 2.05	 0.22	 0.0	 0.0	 1	    1.00000	    0.00000	 138.0	 1	    1.10000	    0.90000;
	41	 1	 14.15	 3.05	 0.0	 5.76185468765	 1	    1.00000	    0.00000	 138.0	 1	    1.10000	    0.90000;
	42	 1	 14.15	 3.83	 0.0	 0.0	 1	    1.00000	    0.00000	 138.0	 1	    1.10000	    0.90000;
	43	 1	 0.0	 0.0	 0.0	 0.0	 1	    1.00000	    0.00000	 138.0	 1	    1.10000	    0.90000;
	44	 1	 14.78	 2.36	 0.0	 0.0	 1	    1.00000	    0.00000	 138.0	 1	    1.10000	    0.90000;
	45	 1	 0.0	 0.0	 0.0	 0.0	 1	    1.00000	    0.00000	 138.0	 1	    1.10000	    0.90000;
	46	 1	 4.64	 0.20	 0.0	 0.0	 1	    1.00000	    0.00000	 138.0	 1	    1.10000	    0.90000;
	47	 1	 15.55	 2.03	 0.0	 0.0	 1	    1.00000	    0.00000	 138.0	 1	    1.10000	    0.90000;
	48	 1	 15.55	 0.85	 0.0	 5.65814673055e-05	 1	    1.00000	    0.00000	 138.0	 1	    1.10000	    0.90000;
	49	 1	 0.0	 0.0	 0.0	 0.0	 1	    1.00000	    0.00000	 138.0	 1	    1.10000	    0.90000;
	50	 1	 15.55	 2.51	 0.0	 0.0	 1	    1.00000	    0.00000	 138.0	 1	    1.10000	    0.90000;
	51	 1	 0.0	 0.0	 0.0	 0.0	 1	    1.00000	    0.00000	 138.0	 1	    1.10000	    0.90000;
	52	 1	 5.46	 1.08	 0.0	 0.0	 1	    1.00000	    0.00000	 138.0	 1	    1.10000	    0.90000;
	53	 1	 23.74	 4.33	 0.0	 0.0	 1	    1.00000	    0.00000	 138.0	 1	    1.10000	    0.90000;
	54	 1	 0.0	 0.0	 0.0	 0.0	 1	    1.00000	    0.00000	 138.0	 1	    1.10000	    0.90000;
	55	 1	 22.20	 5.91	 0.0	 0.0	 1	    1.00000	    0.00000	 138.0	 1	    1.10000	    0.90000;
	56	 1	 22.20	 5.42	 0.0	 0.0	 1	    1.00000	    0.00000	 138.0	 1	    1.10000	    0.90000;
	57	 1	 22.20	 1.17	 0.0	 0.0	 1	    1.00000	    0.00000	 138.0	 1	    1.10000	    0.90000;
	58	 1	 0.0	 0.0	 0.0	 0.0	 1	    1.00000	    0.00000	 138.0	 1	    1.10000	    0.90000;
	59	 1	 2.76	 0.43	 0.0	 0.0	 1	    1.00000	    0.00000	 138.0	 1	    1.10000	    0.90000;
	60	 1	 9.44	 1.93	 0.0	 0.0	 1	    1.00000	    0.00000	 138.0	 1	    1.10000	    0.90000;
	61	 1	 0.0	 0.0	 0.0	 0.0	 1	    1.00000	    0.00000	 138.0	 1	    1.10000	    0.90000;
	62	 1	 0.0	 0.0	 0.0	 0.0	 1	    1.00000	    0.00000	 138.0	 1	    1.10000	    0.90000;
	63	 1	 9.94	 1.12	 0.0	 0.0	 1	    1.00000	    0.00000	 138.0	 1	    1.10000	    0.90000;
	64	 1	 0.0	 0.0	 0.0	 0.0	 1	    1.00000	    0.00000	 138.0	 1	    1.10000	    0.90000;
	65	 1	 9.94	 1.22	 0.0	 0.0	 1	    1.00000	    0.00000	 138.0	 1	    1.10000	    0.90000;
	66	 1	 0.0	 0.0	 0.0	 0.0	 1	    1.00000	    0.00000	 345.0	 1	    1.10000	    0.90000;
	67	 1	 0.0	 0.0	 0.0	 0.0	 1	    1.00000	    0.00000	 138.0	 1	    1.10000	    0.90000;
	68	 1	 22.71	 3.69	 0.0	 0.0	 1	    1.00000	    0.00000	 345.0	 1	    1.10000	    0.90000;
	69	 1	 0.0	 0.0	 0.0	 0.0	 1	    1.00000	    0.00000	 345.0	 1	    1.10000	    0.90000;
	70	 1	 0.0	 0.0	 0.0	 0.0	 1	    1.00000	    0.00000	 345.0	 1	    1.10000	    0.90000;
	71	 1	 2.64	 0.45	 0.0	 0.0	 1	    1.00000	    0.00000	 138.0	 1	    1.10000	    0.90000;
	72	 1	 5.30	 0.72	 0.0	 0.0	 1	    1.00000	    0.00000	 138.0	 1	    1.10000	    0.90000;
	73	 1	 3.10	 0.08	 0.0	 0.0	 1	    1.00000	    0.00000	 138.0	 1	    1.10000	    0.90000;
	74	 1	 5.18	 1.19	 0.0	 0.0	 1	    1.00000	    0.00000	 138.0	 1	    1.10000	    0.90000;
	75	 1	 0.0	 0.0	 0.0	 0.0	 1	    1.00000	    0.00000	 138.0	 1	    1.10000	    0.90000;
	76	 1	 16.03	 1.05	 0.0	 0.0	 1	    1.00000	    0.00000	 138.0	 1	    1.10000	    0.90000;
	77	 1	 0.0	 0.0	 0.0	 0.0	 1	    1.00000	    0.00000	 138.0	 1	    1.10000	    0.90000;
	78	 1	 0.0	 0.0	 0.0	 0.0	 1	    1.00000	    0.00000	 138.0	 1	    1.10000	    0.90000;
	79	 1	 0.0	 0.0	 0.0	 0.0	 1	    1.00000	    0.00000	 138.0	 1	    1.10000	    0.90000;
	80	 1	 12.71	 2.54	 0.0	 0.0	 1	    1.00000	    0.00000	 138.0	 1	    1.10000	    0.90000;
	81	 1	 12.86	 2.80	 0.0	 0.0	 1	    1.00000	    0.00000	 138.0	 1	    1.10000	    0.90000;
	82	 1	 19.44	 2.56	 0.0	 0.0	 1	    1.00000	    0.00000	 138.0	 1	    1.10000	    0.90000;
	83	 1	 0.0	 0.0	 0.0	 0.0	 1	    1.00000	    0.00000	 138.0	 1	    1.10000	    0.90000;
	84	 1	 19.44	 2.29	 0.0	 0.0	 1	    1.00000	    0.00000	 138.0	 1	    1.10000	    0.90000;
	85	 1	 0.0	 0.0	 0.0	 0.0	 1	    1.00000	    0.00000	 138.0	 1	    1.10000	    0.90000;
	86	 1	 19.44	 1.87	 0.0	 0.0	 1	    1.00000	    0.00000	 138.0	 1	    1.10000	    0.90000;
	87	 1	 0.0	 0.0	 0.0	 0.0	 1	    1.00000	    0.00000	 138.0	 1	    1.10000	    0.90000;
	88	 1	 19.44	 0.55	 0.0	 0.0	 1	    1.00000	    0.00000	 138.0	 1	    1.10000	    0.90000;
	89	 1	 10.77	 0.67	 0.0	 0.0	 1	    1.00000	    0.00000	 138.0	 1	    1.10000	    0.90000;
	90	 1	 3.13	 0.07	 0.0	 0.0	 1	    1.00000	    0.00000	 138.0	 1	    1.10000	    0.90000;
	91	 1	 6.26	 0.93	 0.0	 0.0	 1	    1.00000	    0.00000	 138.0	 1	    1.10000	    0.90000;
	92	 1	 12.02	 2.04	 0.0	 0.0	 1	    1.00000	    0.00000	 138.0	 1	    1.10000	    0.90000;
	93	 1	 32.44	 0.48	 0.0	 0.0	 1	    1.00000	    0.00000	 138.0	 1	    1.10000	    0.90000;
	94	 1	 32.44	 3.32	 0.0	 0.0	 1	    1.00000	    0.00000	 138.0	 1	    1.10000	    0.90000;
	95	 1	 32.44	 1.10	 0.0	 0.0	 1	    1.00000	    0.00000	 138.0	 1	    1.10000	    0.90000;
	96	 1	 32.44	 5.89	 0.0	 0.0	 1	    1.00000	    0.00000	 138.0	 1	    1.10000	    0.90000;
	97	 1	 0.0	 0.0	 0.0	 0.0	 1	    1.00000	    0.00000	 345.0	 1	    1.10000	    0.90000;
	98	 1	 0.0	 0.0	 0.0	 0.0	 1	    1.00000	    0.00000	 138.0	 1	    1.10000	    0.90000;
	99	 1	 33.91	 4.82	 0.0	 0.0	 1	    1.00000	    0.00000	 345.0	 1	    1.10000	    0.90000;
	100	 1	 0.0	 0.0	 0.0	 0.0	 1	    1.00000	    0.00000	 345.0	 1	    1.10000	    0.90000;
	101	 1	 0.0	 0.0	 0.0	 0.0	 1	    1.00000	    0.00000	 345.0	 1	    1.10000	    0.90000;
	102	 1	 0.0	 0.0	 0.0	 0.0	 1	    1.00000	    0.00000	 345.0	 1	    1.10000	    0.90000;
	103	 1	 16.86	 1.30	 0.0	 0.0	 1	    1.00000	    0.00000	 138.0	 1	    1.10000	    0.90000;
	104	 1	 0.0	 0.0	 0.0	 -19.6640491241	 1	    1.00000	    0.00000	 345.0	 1	    1.10000	    0.90000;
	105	 1	 0.0	 0.0	 0.0	 0.0	 1	    1.00000	    0.00000	 138.0	 1	    1.10000	    0.90000;
	106	 1	 0.0	 0.0	 0.0	 0.0	 1	    1.00000	    0.00000	 345.0	 1	    1.10000	    0.90000;
	107	 1	 9.59	 2.39	 0.0	 0.0	 1	    1.00000	    0.00000	 345.0	 1	    1.10000	    0.90000;
	108	 1	 0.0	 0.0	 0.0	 0.0	 1	    1.00000	    0.00000	 345.0	 1	    1.10000	    0.90000;
	109	 1	 0.0	 0.0	 0.0	 0.0	 1	    1.00000	    0.00000	 345.0	 1	    1.10000	    0.90000;
	110	 1	 8.74	 0.49	 0.0	 0.0	 1	    1.00000	    0.00000	 138.0	 1	    1.10000	    0.90000;
	111	 1	 8.74	 0.53	 0.0	 0.0	 1	    1.00000	    0.00000	 138.0	 1	    1.10000	    0.90000;
	112	 1	 6.24	 0.47	 0.0	 0.0	 1	    1.00000	    0.00000	 138.0	 1	    1.10000	    0.90000;
	113	 1	 23.47	 0.65	 0.0	 0.0	 1	    1.00000	    0.00000	 138.0	 1	    1.10000	    0.90000;
	114	 1	 23.47	 4.08	 0.0	 0.0	 1	    1.00000	    0.00000	 138.0	 1	    1.10000	    0.90000;
	115	 1	 0.0	 0.0	 0.0	 0.0	 1	    1.00000	    0.00000	 345.0	 1	    1.10000	    0.90000;
	116	 1	 0.0	 0.0	 0.0	 0.0	 1	    1.00000	    0.00000	 138.0	 1	    1.10000	    0.90000;
	117	 1	 23.47	 3.32	 0.0	 0.0	 1	    1.00000	    0.00000	 345.0	 1	    1.10000	    0.90000;
	118	 1	 0.0	 0.0	 0.0	 0.0	 1	    1.00000	    0.00000	 345.0	 1	    1.10000	    0.90000;
	119	 1	 0.0	 0.0	 0.0	 0.0	 1	    1.00000	    0.00000	 345.0	 1	    1.10000	    0.90000;
	120	 1	 23.47	 4.79	 0.0	 0.0	 1	    1.00000	    0.00000	 138.0	 1	    1.10000	    0.90000;
	121	 1	 25.34	 7.22	 0.0	 0.0	 1	    1.00000	    0.00000	 138.0	 1	    1.10000	    0.90000;
	122	 1	 0.0	 0.0	 0.0	 0.0	 1	    1.00000	    0.00000	 138.0	 1	    1.10000	    0.90000;
	123	 1	 26.22	 7.91	 0.0	 0.0	 1	    1.00000	    0.00000	 138.0	 1	    1.10000	    0.90000;
	124	 1	 0.0	 0.0	 0.0	 0.0	 1	    1.00000	    0.00000	 138.0	 1	    1.10000	    0.90000;
	125	 1	 0.0	 0.0	 0.0	 0.0	 1	    1.00000	    0.00000	 138.0	 1	    1.10000	    0.90000;
	126	 1	 0.0	 0.0	 0.0	 -31.0697738125	 1	    1.00000	    0.00000	 345.0	 1	    1.10000	    0.90000;
	127	 1	 0.0	 0.0	 0.0	 0.0	 1	    1.00000	    0.00000	 138.0	 1	    1.10000	    0.90000;
	128	 1	 25.34	 4.10	 0.0	 0.0	 1	    1.00000	    0.00000	 345.0	 1	    1.10000	    0.90000;
	129	 1	 0.0	 0.0	 0.0	 0.0	 1	    1.00000	    0.00000	 345.0	 1	    1.10000	    0.90000;
	130	 1	 0.0	 0.0	 0.0	 0.0	 1	    1.00000	    0.00000	 345.0	 1	    1.10000	    0.90000;
	131	 1	 25.34	 1.85	 0.0	 0.0	 1	    1.00000	    0.00000	 138.0	 1	    1.10000	    0.90000;
	132	 1	 37.98	 5.43	 0.0	 0.0	 1	    1.00000	    0.00000	 138.0	 1	    1.10000	    0.90000;
	133	 1	 0.0	 0.0	 0.0	 0.0	 1	    1.00000	    0.00000	 138.0	 1	    1.10000	    0.90000;
	134	 1	 35.62	 5.60	 0.0	 0.0	 1	    1.00000	    0.00000	 138.0	 1	    1.10000	    0.90000;
	135	 1	 0.0	 0.0	 0.0	 0.0	 1	    1.00000	    0.00000	 138.0	 1	    1.10000	    0.90000;
	136	 1	 35.62	 1.87	 0.0	 0.0	 1	    1.00000	    0.00000	 138.0	 1	    1.10000	    0.90000;
	137	 1	 35.62	 5.48	 0.0	 0.0	 1	    1.00000	    0.00000	 138.0	 1	    1.10000	    0.90000;
	138	 1	 0.0	 0.0	 0.0	 0.0	 1	    1.00000	    0.00000	 345.0	 1	    1.10000	    0.90000;
	139	 1	 0.0	 0.0	 0.0	 0.0	 1	    1.00000	    0.00000	 138.0	 1	    1.10000	    0.90000;
	140	 1	 35.62	 8.65	 0.0	 0.0	 1	    1.00000	    0.00000	 345.0	 1	    1.10000	    0.90000;
	141	 1	 0.0	 0.0	 0.0	 0.0	 1	    1.00000	    0.00000	 345.0	 1	    1.10000	    0.90000;
	142	 1	 0.0	 0.0	 0.0	 0.0	 1	    1.00000	    0.00000	 345.0	 1	    1.10000	    0.90000;
	143	 1	 21.26	 5.14	 0.0	 0.0	 1	    1.00000	    0.00000	 138.0	 1	    1.10000	    0.90000;
	144	 1	 21.35	 2.14	 0.0	 0.0	 1	    1.00000	    0.00000	 138.0	 1	    1.10000	    0.90000;
	145	 1	 23.98	 2.06	 0.0	 0.0	 1	    1.00000	    0.00000	 138.0	 1	    1.10000	    0.90000;
	146	 1	 23.57	 3.75	 0.0	 0.0	 1	    1.00000	    0.00000	 138.0	 1	    1.10000	    0.90000;
	147	 1	 4.49	 0.46	 0.0	 -3.14869351666	 1	    1.00000	    0.00000	 138.0	 1	    1.10000	    0.90000;
	148	 1	 0.0	 0.0	 0.0	 0.0	 1	    1.00000	    0.00000	 138.0	 1	    1.10000	    0.90000;
	149	 1	 27.46	 8.50	 0.0	 0.0	 1	    1.00000	    0.00000	 138.0	 1	    1.10000	    0.90000;
	150	 1	 27.46	 2.28	 0.0	 0.0	 1	    1.00000	    0.00000	 138.0	 1	    1.10000	    0.90000;
	151	 1	 26.99	 4.12	 0.0	 0.0	 1	    1.00000	    0.00000	 138.0	 1	    1.10000	    0.90000;
	152	 1	 27.46	 3.30	 0.0	 0.0	 1	    1.00000	    0.00000	 138.0	 1	    1.10000	    0.90000;
	153	 1	 3.57	 0.34	 0.0	 0.0	 1	    1.00000	    0.00000	 138.0	 1	    1.10000	    0.90000;
	154	 1	 0.0	 0.0	 0.0	 0.0	 1	    1.00000	    0.00000	 138.0	 1	    1.10000	    0.90000;
	155	 1	 10.17	 3.73	 0.0	 0.0	 1	    1.00000	    0.00000	 138.0	 1	    1.10000	    0.90000;
	156	 1	 0.0	 0.0	 0.0	 0.0	 1	    1.00000	    0.00000	 138.0	 1	    1.10000	    0.90000;
	157	 1	 12.31	 0.76	 0.0	 0.0	 1	    1.00000	    0.00000	 138.0	 1	    1.10000	    0.90000;
	158	 1	 0.0	 0.0	 0.0	 0.0	 1	    1.00000	    0.00000	 138.0	 1	    1.10000	    0.90000;
	159	 1	 0.0	 0.0	 0.0	 0.0	 1	    1.00000	    0.00000	 138.0	 1	    1.10000	    0.90000;
	160	 1	 9.89	 1.64	 0.0	 0.0	 1	    1.00000	    0.00000	 138.0	 1	    1.10000	    0.90000;
	161	 1	 9.03	 1.68	 0.0	 0.0	 1	    1.00000	    0.00000	 138.0	 1	    1.10000	    0.90000;
	162	 1	 0.0	 0.0	 0.0	 0.0	 1	    1.00000	    0.00000	 138.0	 1	    1.10000	    0.90000;
	163	 1	 13.75	 1.21	 0.0	 0.0	 1	    1.00000	    0.00000	 138.0	 1	    1.10000	    0.90000;
	164	 1	 0.0	 0.0	 0.0	 0.0	 1	    1.00000	    0.00000	 138.0	 1	    1.10000	    0.90000;
	165	 1	 0.0	 0.0	 0.0	 0.0	 1	    1.00000	    0.00000	 138.0	 1	    1.10000	    0.90000;
	166	 1	 21.73	 0.91	 0.0	 0.0	 1	    1.00000	    0.00000	 138.0	 1	    1.10000	    0.90000;
	167	 1	 21.73	 1.80	 0.0	 0.0	 1	    1.00000	    0.00000	 138.0	 1	    1.10000	    0.90000;
	168	 1	 21.73	 6.55	 0.0	 0.0	 1	    1.00000	    0.00000	 138.0	 1	    1.10000	    0.90000;
	169	 1	 21.73	 2.29	 0.0	 0.000135319895233	 1	    1.00000	    0.00000	 138.0	 1	    1.10000	    0.90000;
	170	 1	 13.95	 1.16	 0.0	 0.0	 1	    1.00000	    0.00000	 138.0	 1	    1.10000	    0.90000;
	171	 1	 0.0	 0.0	 0.0	 0.0	 1	    1.00000	    0.00000	 138.0	 1	    1.10000	    0.90000;
	172	 1	 12.00	 2.21	 0.0	 0.0	 1	    1.00000	    0.00000	 138.0	 1	    1.10000	    0.90000;
	173	 1	 0.0	 0.0	 0.0	 0.0	 1	    1.00000	    0.00000	 138.0	 1	    1.10000	    0.90000;
	174	 1	 17.00	 2.48	 0.0	 0.0	 1	    1.00000	    0.00000	 138.0	 1	    1.10000	    0.90000;
	175	 1	 0.0	 0.0	 0.0	 0.0	 1	    1.00000	    0.00000	 138.0	 1	    1.10000	    0.90000;
	176	 1	 11.02	 1.00	 0.0	 0.0	 1	    1.00000	    0.00000	 138.0	 1	    1.10000	    0.90000;
	177	 1	 0.0	 0.0	 0.0	 0.0	 1	    1.00000	    0.00000	 138.0	 1	    1.10000	    0.90000;
	178	 1	 11.97	 1.48	 0.0	 0.0	 1	    1.00000	    0.00000	 138.0	 1	    1.10000	    0.90000;
	179	 1	 0.0	 0.0	 0.0	 0.0	 1	    1.00000	    0.00000	 138.0	 1	    1.10000	    0.90000;
	180	 1	 11.97	 1.32	 0.0	 0.0	 1	    1.00000	    0.00000	 138.0	 1	    1.10000	    0.90000;
	181	 1	 0.0	 0.0	 0.0	 0.0	 1	    1.00000	    0.00000	 138.0	 1	    1.10000	    0.90000;
	182	 1	 8.69	 0.45	 0.0	 0.0	 1	    1.00000	    0.00000	 138.0	 1	    1.10000	    0.90000;
	183	 1	 0.0	 0.0	 0.0	 0.0	 1	    1.00000	    0.00000	 138.0	 1	    1.10000	    0.90000;
	184	 1	 34.35	 3.51	 0.0	 0.0	 1	    1.00000	    0.00000	 138.0	 1	    1.10000	    0.90000;
	185	 1	 0.0	 0.0	 0.0	 0.0	 1	    1.00000	    0.00000	 138.0	 1	    1.10000	    0.90000;
	186	 1	 0.0	 0.0	 0.0	 0.0	 1	    1.00000	    0.00000	 138.0	 1	    1.10000	    0.90000;
	187	 1	 34.35	 3.43	 0.0	 0.0	 1	    1.00000	    0.00000	 138.0	 1	    1.10000	    0.90000;
	188	 1	 0.0	 0.0	 0.0	 0.0	 1	    1.00000	    0.00000	 138.0	 1	    1.10000	    0.90000;
	189	 1	 34.35	 3.73	 0.0	 0.0	 1	    1.00000	    0.00000	 138.0	 1	    1.10000	    0.90000;
	190	 1	 0.0	 0.0	 0.0	 0.0	 1	    1.00000	    0.00000	 138.0	 1	    1.10000	    0.90000;
	191	 1	 0.0	 0.0	 0.0	 0.0	 1	    1.00000	    0.00000	 138.0	 1	    1.10000	    0.90000;
	192	 1	 0.0	 0.0	 0.0	 0.0	 1	    1.00000	    0.00000	 345.0	 1	    1.10000	    0.90000;
	193	 1	 0.0	 0.0	 0.0	 0.0	 1	    1.00000	    0.00000	 138.0	 1	    1.10000	    0.90000;
	194	 1	 34.35	 4.64	 0.0	 0.0	 1	    1.00000	    0.00000	 345.0	 1	    1.10000	    0.90000;
	195	 1	 0.0	 0.0	 0.0	 0.0	 1	    1.00000	    0.00000	 345.0	 1	    1.10000	    0.90000;
	196	 1	 0.0	 0.0	 0.0	 0.0	 1	    1.00000	    0.00000	 345.0	 1	    1.10000	    0.90000;
	197	 1	 6.13	 1.72	 0.0	 0.000114653871858	 1	    1.00000	    0.00000	 138.0	 1	    1.10000	    0.90000;
	198	 1	 4.29	 0.47	 0.0	 0.0	 1	    1.00000	    0.00000	 138.0	 1	    1.10000	    0.90000;
	199	 1	 0.0	 0.0	 0.0	 0.0	 1	    1.00000	    0.00000	 138.0	 1	    1.10000	    0.90000;
	200	 1	 0.0	 0.0	 0.0	 0.0	 1	    1.00000	    0.00000	 138.0	 1	    1.10000	    0.90000;
...
];

%% generator data
%	bus	Pg	Qg	Qmax	Qmin	Vg	mBase	status	Pmax	Pmin
mpc.gen = [
	2357	 331.8155	 -18.6815	 415.68	 -453.043	 1.0	 1082.5	 1	 585	 78.631; % COW
	2358	 416.70325	 -18.6815	 415.68	 -453.043	 1.0	 1082.5	 1	 771	 62.4065; % NUC
	2359	 552.84325	 -6.5215	 440.0	 -453.043	 1.0	 1082.5	 1	 879	 226.6865; % COW
	2360	 158.64	 -18.6815	 415.68	 -453.043	 1.0	 1082.5	 1	 260	 57.28; % COW
	2361	 447.8475	 -18.6815	 415.68	 -453.043	 1.0	 1082.5	 1	 639	 256.695; % NG
	2362	 358.55	 -18.6815	 415.68	 -453.043	 1.0	 1082.5	 1	 498	 219.1; % COW
	2367	 191.4555	 0.0	 362.4	 -362.4	 1.0	 5.7	 1	 382	 0.911; % PEL
	2367	 198.16425	 0.0	 362.4	 -362.4	 1.0	 5.7	 1	 395	 1.3285; % NG
	2368	 62.87	 0.0	 63.0	 -63.0	 1.0	 5.7	 1	 125	 0.74; % PEL
	2368	 22.2355	 0.0	 54.0	 -54.0	 1.0	 5.7	 1	 44	 0.471; % NG
	2376	 277.7335	 60.0665	 340.133	 -220.0	 1.0	 729.9	 1	 439	 116.467; % COW
	2377	 210.032	 74.5665	 340.133	 -191.0	 1.0	 729.9	 1	 382	 38.064; % COW
	2383	 56.18	 0.0	 55.0	 -55.0	 1.0	 14.8	 1	 109	 3.36; % NG
	2391	 150.4555	 0.0	 125.0	 -125.0	 1.0	 232.67	 1	 250	 50.911; % NG
	2392	 140.8595	 0.0	 122.0	 -122.0	 1.0	 232.67	 1	 244	 37.719; % NG
	2393	 242.498	 0.0	 226.0	 -226.0	 1.0	 232.67	 1	 452	 32.996; % NG
	2400	 298.6695	 0.0	 267.0	 -267.0	 1.0	 262.2	 1	 534	 63.339; % COW
	2405	 86.431	 0.0	 85.0	 -85.0	 1.0	 16.8	 1	 169	 3.862; % PEL
	2411	 162.0995	 0.0	 156.0	 -156.0	 1.0	 204.0	 1	 311	 13.199; % COW
	2419	 97.7355	 0.0	 87.0	 -87.0	 1.0	 135.0	 1	 174	 21.471; % NG
	2420	 224.60475	 0.0	 212.0	 -212.0	 1.0	 135.0	 1	 424	 25.2095; % NG
	2421	 100.01625	 0.0	 87.0	 -87.0	 1.0	 135.0	 1	 174	 26.0325; % NG
	2422	 54.50975	 0.0	 74.4	 -74.4	 1.0	 135.0	 1	 98	 11.0195; % PEL
	2423	 112.682	 0.0	 100.0	 -100.0	 1.0	 135.0	 1	 199	 26.364; % NG
	2424	 147.14275	 0.0	 140.0	 -140.0	 1.0	 135.0	 1	 279	 15.2855; % NG
	2432	 71.214	 0.0	 69.6	 -69.6	 1.0	 136.3	 1	 132	 10.428; % NG
	2433	 60.2535	 0.0	 68.4	 -68.4	 1.0	 136.3	 1	 111	 9.507; % NG
	2441	 121.479	 0.0	 115.0	 -115.0	 1.0	 216.6	 1	 230	 12.958; % NG
	2442	 81.67125	 8.587	 83.174	 -66.0	 1.0	 216.6	 1	 132	 31.3425; % NG
	2443	 132.4805	 0.0	 106.0	 -106.0	 1.0	 216.6	 1	 211	 53.961; % NG
	2444	 129.57225	 0.0	 118.0	 -118.0	 1.0	 216.6	 1	 235	 24.1445; % NG
	2445	 132.7285	 0.0	 106.0	 -106.0	 1.0	 216.6	 1	 212	 53.457; % NG
	2446	 131.06675	 0.0	 107.0	 -107.0	 1.0	 216.6	 1	 213	 49.1335; % NG
	2454	 47.09125	 0.0	 42.0	 -42.0	 1.0	 100.5	 1	 84	 10.1825; % NG
	2455	 56.6545	 0.0	 53.0	 -53.0	 1.0	 100.5	 1	 105	 8.309; % NG
	2456	 71.3005	 0.0	 67.0	 -67.0	 1.0	 100.5	 1	 134	 8.601; % NG
	2457	 58.47125	 0.0	 48.0	 -48.0	 1.0	 100.5	 1	 95	 21.9425; % NG
	2458	 74.115	 0.0	 71.0	 -71.0	 1.0	 100.5	 1	 142	 6.23; % NG
	2459	 104.9985	 0.0	 98.0	 -98.0	 1.0	 100.5	 1	 196	 13.997; % NG
	2464	 61.9385	 0.0	 62.0	 -62.0	 1.0	 6.0	 1	 123	 0.877; % PEL
	2471	 78.40325	 0.0	 66.0	 -66.0	 1.0	 129.0	 1	 132	 24.8065; % NG
	2472	 91.17525	 0.0	 80.0	 -80.0	 1.0	 129.0	 1	 160	 22.3505; % NG
	2473	 135.3955	 0.0	 121.0	 -121.0	 1.0	 129.0	 1	 242	 28.791; % NG
	2474	 210.6045	 0.0	 205.0	 -205.0	 1.0	 129.0	 1	 410	 11.209; % COW
	2475	 73.8495	 0.0	 65.0	 -65.0	 1.0	 129.0	 1	 129	 18.699; % COW
	2476	 240.80125	 0.0	 232.0	 -232.0	 1.0	 129.0	 1	 464	 17.6025; % NG
	2483	 186.41125	 0.0	 182.0	 -182.0	 1.0	 52.4	 1	 364	 8.8225; % NG
	2484	 46.0715	 0.0	 44.0	 -44.0	 1.0	 52.4	 1	 88	 4.143; % NG
	2490	 73.5505	 0.0	 71.0	 -71.0	 1.0	 27.5	 1	 141	 6.101; % NG
	2497	 52.43375	 0.0	 44.0	 -44.0	 1.0	 78.3	 1	 88	 16.8675; % PEL
	2498	 119.05525	 0.0	 114.0	 -114.0	 1.0	 78.3	 1	 228	 10.1105; % COW
	2504	 23.64125	 0.0	 23.0	 -23.0	 1.0	 12.0	 1	 45	 2.2825; % NG
	2504	 8.6725	 0.0	 9.0	 -9.0	 1.0	 1.5	 1	 17	 0.345; % PEL
	2511	 64.4085	 0.0	 63.0	 -63.0	 1.0	 35.0	 1	 125	 3.817; % PEL
	2511	 43.69025	 0.0	 41.0	 -41.0	 1.0	 35.0	 1	 82	 5.3805; % PEL
	2517	 57.3985	 0.0	 55.0	 -55.0	 1.0	 36.0	 1	 110	 4.797; % PEL
	2517	 37.17625	 0.0	 33.0	 -33.0	 1.0	 36.0	 1	 66	 8.3525; % PEL
	2523	 158.204	 0.0	 147.0	 -147.0	 1.0	 105.3	 1	 293	 23.408; % NG
	2531	 113.17225	 0.0	 95.0	 -95.0	 1.0	 150.0	 1	 189	 37.3445; % NG
	2532	 205.86125	 0.0	 192.0	 -192.0	 1.0	 150.0	 1	 384	 27.7225; % NG
	2540	 130.04675	 0.0	 120.0	 -120.0	 1.0	 104.9	 1	 239	 21.0935; % COW
	2541	 124.92175	 0.0	 118.0	 -118.0	 1.0	 104.9	 1	 235	 14.8435; % NG
	2542	 62.79375	 0.0	 57.0	 -57.0	 1.0	 104.9	 1	 113	 12.5875; % NG
	2543	 59.47775	 0.0	 52.0	 -52.0	 1.0	 104.9	 1	 104	 14.9555; % NG
	2544	 90.6245	 0.0	 87.0	 -87.0	 1.0	 104.9	 1	 173	 8.249; % NG
	2545	 127.76275	 0.0	 116.0	 -116.0	 1.0	 104.9	 1	 231	 24.5255; % COW
	2550	 87.21225	 0.0	 260.4	 -260.4	 1.0	 41.7	 1	 166	 8.4245; % PEL
	2551	 64.0565	 0.0	 60.0	 -60.0	 1.0	 41.7	 1	 120	 8.113; % NG
	2551	 107.69575	 0.0	 106.0	 -106.0	 1.0	 41.7	 1	 212	 3.3915; % PEL
	2551	 123.78825	 0.0	 121.0	 -121.0	 1.0	 41.7	 1	 241	 6.5765; % NG
	2558	 19.70275	 0.0	 20.0	 -20.0	 1.0	 8.0	 1	 39	 0.4055; % PEL
	2558	 17.4495	 0.0	 17.0	 -17.0	 1.0	 8.0	 1	 33	 1.899; % NG
	2559	 10.287	 0.0	 10.0	 -10.0	 1.0	 8.0	 1	 20	 0.574; % NG
	2559	 37.1725	 0.0	 37.0	 -37.0	 1.0	 8.0	 1	 73	 1.345; % NG
	2565	 66.945	 0.0	 64.0	 -64.0	 1.0	 26.8	 1	 128	 5.89; % NG
	2572	 139.24625	 0.0	 135.0	 -135.0	 1.0	 45.6	 1	 269	 9.4925; % NG
	2572	 40.056	 0.0	 37.0	 -37.0	 1.0	 45.6	 1	 73	 7.112; % NG
	2573	 41.03325	 0.0	 36.0	 -36.0	 1.0	 45.6	 1	 72	 10.0665; % NG
	2573	 134.7535	 0.0	 130.0	 -130.0	 1.0	 45.6	 1	 260	 9.507; % COW
	2578	 23.01	 0.0	 23.0	 -23.0	 1.0	 0.23	 1	 46	 0.02; % NG
	2578	 61.57825	 0.0	 61.0	 -61.0	 1.0	 21.6	 1	 121	 2.1565; % NG
	2578	 17.512	 0.0	 18.0	 -18.0	 1.0	 0.23	 1	 35	 0.024; % PEL
	2578	 20.528	 0.0	 21.0	 -21.0	 1.0	 0.23	 1	 41	 0.056; % NG
	2578	 53.01925	 0.0	 53.0	 -53.0	 1.0	 0.23	 1	 106	 0.0385; % NG
	2578	 31.02075	 0.0	 31.0	 -31.0	 1.0	 0.23	 1	 62	 0.0415; % NG
	2578	 62.0265	 0.0	 62.0	 -62.0	 1.0	 0.23	 1	 124	 0.053; % PEL
	2578	 39.54825	 0.0	 40.0	 -40.0	 1.0	 0.4	 1	 79	 0.0965; % PEL
	2578	 21.57025	 0.0	 22.0	 -22.0	 1.0	 1.6	 1	 43	 0.1405; % PEL
	2578	 27.47575	 0.0	 26.0	 -26.0	 1.0	 21.6	 1	 51	 3.9515; % NG
	2584	 40.75125	 0.0	 39.0	 -39.0	 1.0	 15.0	 1	 78	 3.5025; % NG
	2584	 20.698	 0.0	 20.0	 -20.0	 1.0	 15.0	 1	 39	 2.396; % COW
	2591	 71.436	 0.0	 71.0	 -71.0	 1.0	 12.8	 1	 141	 1.872; % PEL
	2592	 80.83725	 0.0	 81.0	 -81.0	 1.0	 12.8	 1	 161	 0.6745; % COW
	2592	 43.9715	 0.0	 43.0	 -43.0	 1.0	 12.8	 1	 85	 2.943; % PEL
	2593	 40.5955	 0.0	 40.0	 -40.0	 1.0	 12.8	 1	 79	 2.191; % NG
	2593	 50.00475	 0.0	 49.0	 -49.0	 1.0	 12.8	 1	 97	 3.0095; % PEL
	2598	 29.095	 0.0	 29.0	 -29.0	 1.0	 2.62	 1	 58	 0.19; % PEL
	2598	 32.61475	 0.0	 33.0	 -33.0	 1.0	 2.62	 1	 65	 0.2295; % PEL
	2598	 18.112	 0.0	 18.0	 -18.0	 1.0	 2.62	 1	 36	 0.224; % PEL
	2598	 40.19075	 0.0	 40.0	 -40.0	 1.0	 2.62	 1	 80	 0.3815; % PEL
	2598	 36.621	 0.0	 37.0	 -37.0	 1.0	 2.62	 1	 73	 0.242; % PEL
	2602	 97.76375	 0.0	 93.0	 -93.0	 1.0	 50.0	 1	 185	 10.5275; % NG
	2608	 26.9875	 0.0	 27.0	 -27.0	 1.0	 4.1	 1	 53	 0.975; % NG
	2608	 37.224	 0.0	 37.0	 -37.0	 1.0	 4.1	 1	 74	 0.448; % PEL
	2609	 24.12175	 0.0	 24.0	 -24.0	 1.0	 4.1	 1	 48	 0.2435; % NG
	2609	 29.2855	 0.0	 29.0	 -29.0	 1.0	 4.1	 1	 58	 0.571; % NG
	2610	 14.87925	 0.0	 15.0	 -15.0	 1.0	 4.1	 1	 29	 0.7585; % NG
	2611	 12.395	 0.0	 12.0	 -12.0	 1.0	 4.1	 1	 24	 0.79; % PEL
	2616	 23.0625	 0.0	 23.0	 -23.0	 1.0	 0.8	 1	 46	 0.125; % PEL
	2616	 26.09725	 0.0	 26.0	 -26.0	 1.0	 0.8	 1	 52	 0.1945; % NG
	2616	 35.56875	 0.0	 36.0	 -36.0	 1.0	 0.8	 1	 71	 0.1375; % PEL
	2616	 28.55025	 0.0	 29.0	 -29.0	 1.0	 0.8	 1	 57	 0.1005; % PEL
	2616	 17.071	 0.0	 17.0	 -17.0	 1.0	 1.7	 1	 34	 0.142; % PEL
	2616	 50.768	 0.0	 51.0	 -51.0	 1.0	 2.5	 1	 101	 0.536; % PEL
	2616	 15.632	 0.0	 15.0	 -15.0	 1.0	 12.9	 1	 30	 1.264; % NG
	2620	 68.743	 0.0	 166.8	 -166.8	 1.0	 90.0	 1	 120	 17.486; % NG
	2628	 46.39275	 0.0	 45.0	 -45.0	 1.0	 29.6	 1	 89	 3.7855; % PEL
	2629	 103.38475	 0.0	 101.0	 -101.0	 1.0	 29.6	 1	 201	 5.7695; % NG
	2637	 150.02475	 0.0	 181.2	 -181.2	 1.0	 216.67	 1	 259	 41.0495; % NG
	2638	 214.4655	 0.0	 203.0	 -203.0	 1.0	 216.67	 1	 406	 22.931; % NG
	2639	 145.71125	 0.0	 188.4	 -188.4	 1.0	 216.67	 1	 249	 42.4225; % NG
	2646	 269.95725	 0.0	 246.0	 -246.0	 1.0	 266.8	 1	 492	 47.9145; % COW
	2653	 57.15	 0.0	 49.0	 -49.0	 1.0	 97.8	 1	 98	 16.3; % NG
	2658	 24.14325	 0.0	 24.0	 -24.0	 1.0	 2.2	 1	 48	 0.2865; % PEL
	2658	 32.69625	 0.0	 33.0	 -33.0	 1.0	 2.3	 1	 65	 0.3925; % NG
	2664	 160.2635	 0.0	 158.0	 -158.0	 1.0	 87.8	 1	 316	 4.527; % NG
	2670	 180.54775	 0.0	 161.0	 -161.0	 1.0	 248.0	 1	 321	 40.0955; % COW
	2675	 31.90775	 0.0	 32.0	 -32.0	 1.0	 3.52	 1	 63	 0.8155; % NG
	2675	 40.36075	 0.0	 40.0	 -40.0	 1.0	 3.52	 1	 80	 0.7215; % PEL
	2675	 70.3045	 0.0	 70.0	 -70.0	 1.0	 3.52	 1	 140	 0.609; % NG
	2675	 39.931	 0.0	 40.0	 -40.0	 1.0	 3.52	 1	 79	 0.862; % PEL
	2675	 23.19	 0.0	 23.0	 -23.0	 1.0	 3.52	 1	 46	 0.38; % NG
	2682	 224.5775	 0.0	 213.0	 -213.0	 1.0	 409.37	 1	 426	 23.155; % NG
	2683	 154.7095	 14.0985	 157.197	 -129.0	 1.0	 409.37	 1	 258	 51.419; % NG
	2684	 166.603	 12.5985	 157.197	 -132.0	 1.0	 409.37	 1	 263	 70.206; % NG
	2685	 325.397	 0.0	 292.0	 -292.0	 1.0	 409.37	 1	 583	 67.794; % COW
	2686	 239.5875	 0.0	 194.0	 -194.0	 1.0	 409.37	 1	 388	 91.175; % COW
	2687	 170.7115	 9.0985	 157.197	 -139.0	 1.0	 409.37	 1	 278	 63.423; % NG
	2692	 34.6695	 0.0	 34.0	 -34.0	 1.0	 6.0	 1	 68	 1.339; % NG
	2692	 104.1195	 0.0	 104.0	 -104.0	 1.0	 6.0	 1	 207	 1.239; % NG
	2698	 91.7305	 0.0	 74.0	 -74.0	 1.0	 151.2	 1	 147	 36.461; % NG
	2706	 147.38525	 0.0	 136.0	 -136.0	 1.0	 159.5	 1	 271	 23.7705; % NG
	2707	 111.09625	 0.0	 98.0	 -98.0	 1.0	 159.5	 1	 195	 27.1925; % NG
	2712	 34.229	 0.0	 34.0	 -34.0	 1.0	 7.2	 1	 68	 0.458; % COW
	2719	 73.29	 0.0	 69.6	 -69.6	 1.0	 94.0	 1	 130	 16.58; % PEL
	2720	 81.24275	 0.0	 77.0	 -77.0	 1.0	 94.0	 1	 154	 8.4855; % NG
	2721	 176.2345	 0.0	 168.0	 -168.0	 1.0	 94.0	 1	 336	 16.469; % NG
	2722	 85.21175	 0.0	 77.0	 -77.0	 1.0	 94.0	 1	 153	 17.4235; % NG
	2730	 210.7915	 0.0	 197.0	 -197.0	 1.0	 142.15	 1	 394	 27.583; % COW
	2731	 146.19325	 0.0	 129.0	 -129.0	 1.0	 142.15	 1	 258	 34.3865; % NG
	2736	 98.04875	 0.0	 97.0	 -97.0	 1.0	 10.0	 1	 194	 2.0975; % COW
	2740	 55.5335	 0.0	 56.0	 -56.0	 1.0	 0.5	 1	 111	 0.067; % PEL
	2740	 47.03975	 0.0	 47.0	 -47.0	 1.0	 1.0	 1	 94	 0.0795; % PEL
	2740	 33.82825	 0.0	 34.0	 -34.0	 1.0	 4.0	 1	 67	 0.6565; % NG
	2740	 64.92125	 0.0	 65.0	 -65.0	 1.0	 4.0	 1	 129	 0.8425; % NG
	2740	 23.81925	 0.0	 24.0	 -24.0	 1.0	 4.0	 1	 47	 0.6385; % NG
	2746	 64.26925	 0.0	 63.0	 -63.0	 1.0	 19.35	 1	 125	 3.5385; % PEL
	2746	 126.0655	 0.0	 124.0	 -124.0	 1.0	 19.35	 1	 248	 4.131; % PEL
	2752	 15.852	 0.0	 16.0	 -16.0	 1.0	 6.1	 1	 31	 0.704; % PEL
	2757	 407.025	 0.0	 405.0	 -405.0	 1.0	 27.95	 1	 809	 5.05; % NG
	2758	 61.3715	 0.0	 59.0	 -59.0	 1.0	 27.95	 1	 118	 4.743; % NG
	2758	 49.6745	 0.0	 47.0	 -47.0	 1.0	 27.95	 1	 93	 6.349; % NG
	2758	 34.818	 0.0	 34.0	 -34.0	 1.0	 27.95	 1	 68	 1.636; % NG
	2766	 148.013	 0.0	 138.0	 -138.0	 1.0	 173.3	 1	 275	 21.026; % NG
	2767	 78.74825	 0.0	 72.0	 -72.0	 1.0	 173.3	 1	 143	 14.4965; % NG
	2768	 84.2695	 0.0	 75.0	 -75.0	 1.0	 173.3	 1	 149	 19.539; % NG
	2769	 224.6455	 0.0	 212.0	 -212.0	 1.0	 173.3	 1	 423	 26.291; % NG
	2770	 74.7655	 3.2735	 66.547	 -60.0	 1.0	 173.3	 1	 119	 30.531; % NG
	2771	 124.72425	 0.0	 107.0	 -107.0	 1.0	 173.3	 1	 213	 36.4485; % NG
	2772	 13.56425	 0.0	 14.0	 -14.0	 1.0	 0.8	 1	 27	 0.1285; % PEL
	2772	 12.039	 0.0	 12.0	 -12.0	 1.0	 0.8	 1	 24	 0.078; % PEL
	2773	 45.52825	 0.0	 46.0	 -46.0	 1.0	 0.6	 1	 91	 0.0565; % PEL
	2773	 49.54175	 0.0	 50.0	 -50.0	 1.0	 0.6	 1	 99	 0.0835; % PEL
	2778	 81.07375	 0.0	 444.0	 -444.0	 1.0	 80.0	 1	 158	 4.1475; % PEL
	2778	 86.83975	 0.0	 444.0	 -444.0	 1.0	 80.0	 1	 154	 19.6795; % COW
	2778	 98.8295	 0.0	 444.0	 -444.0	 1.0	 80.0	 1	 183	 14.659; % NG
	2786	 70.3505	 0.0	 67.0	 -67.0	 1.0	 39.4	 1	 133	 7.701; % NG
	2786	 70.379	 0.0	 67.0	 -67.0	 1.0	 39.4	 1	 133	 7.758; % PEL
	2787	 34.83925	 0.0	 32.0	 -32.0	 1.0	 39.4	 1	 63	 6.6785; % NG
	2793	 46.48275	 0.0	 45.0	 -45.0	 1.0	 25.0	 1	 89	 3.9655; % NG
	2793	 17.64125	 0.0	 17.0	 -17.0	 1.0	 25.0	 1	 33	 2.2825; % NG
	2798	 115.4115	 0.0	 115.0	 -115.0	 1.0	 10.0	 1	 229	 1.823; % NG
	2803	 23.65075	 0.0	 24.0	 -24.0	 1.0	 2.7	 1	 47	 0.3015; % PEL
	2804	 23.0935	 0.0	 23.0	 -23.0	 1.0	 2.0	 1	 46	 0.187; % PEL
	2804	 26.05375	 0.0	 26.0	 -26.0	 1.0	 2.0	 1	 52	 0.1075; % PEL
	2805	 23.237	 0.0	 23.0	 -23.0	 1.0	 2.0	 1	 46	 0.474; % PEL
	2805	 35.05975	 0.0	 35.0	 -35.0	 1.0	 2.0	 1	 70	 0.1195; % PEL
	2806	 11.5995	 0.0	 12.0	 -12.0	 1.0	 2.0	 1	 23	 0.199; % PEL
	2806	 14.177	 0.0	 14.0	 -14.0	 1.0	 1.8	 1	 28	 0.354; % PEL
	2807	 4.58075	 0.0	 5.0	 -5.0	 1.0	 1.0	 1	 9	 0.1615; % NG
	2814	 83.27375	 0.0	 75.0	 -75.0	 1.0	 67.0	 1	 150	 16.5475; % NG
	2815	 74.399	 0.0	 69.0	 -69.0	 1.0	 67.0	 1	 137	 11.798; % PEL
	2820	 76.63675	 0.0	 73.0	 -73.0	 1.0	 84.6	 1	 146	 7.2735; % NG
	2820	 135.36575	 0.0	 127.0	 -127.0	 1.0	 84.6	 1	 253	 17.7315; % COW
	2827	 152.8995	 0.0	 148.0	 -148.0	 1.0	 135.0	 1	 296	 9.799; % NG
	2828	 111.1255	 0.0	 108.0	 -108.0	 1.0	 135.0	 1	 215	 7.251; % COW
	2829	 77.48625	 0.0	 72.0	 -72.0	 1.0	 135.0	 1	 144	 10.9725; % COW
	2830	 78.28175	 0.0	 71.0	 -71.0	 1.0	 135.0	 1	 142	 14.5635; % NG
	2831	 191.70175	 0.0	 178.0	 -178.0	 1.0	 135.0	 1	 356	 27.4035; % NG
	2832	 62.43525	 0.42	 51.84	 -51.0	 1.0	 135.0	 1	 102	 22.8705; % COW
...
];

%% generator cost data
%	2	startup	shutdown	n	c(n-1)	...	c0
mpc.gencost = [
	2	 0.0	 0.0	 3	   0.000000	   0.000000	   0.000000; % COW
	2	 0.0	 0.0	 3	   0.000000	   0.000000	   0.000000; % NUC
	2	 0.0	 0.0	 3	   0.000000	   0.000000	   0.000000; % COW
	2	 0.0	 0.0	 3	   0.000000	   0.000000	   0.000000; % COW
	2	 0.0	 0.0	 3	   0.000000	   0.000000	   0.000000; % NG
	2	 0.0	 0.0	 3	   0.000000	   0.000000	   0.000000; % COW
	2	 0.0	 0.0	 3	   0.000000	   0.000000	   0.000000; % PEL
	2	 0.0	 0.0	 3	   0.000000	   0.000000	   0.000000; % NG
	2	 0.0	 0.0	 3	   0.000000	   0.000000	   0.000000; % PEL
	2	 0.0	 0.0	 3	   0.000000	   0.000000	   0.000000; % NG
	2	 0.0	 0.0	 3	   0.050390	  41.820000	 -18.890000; % COW
	2	 0.0	 0.0	 3	   0.039040	  18.190000	  -9.055000; % COW
	2	 0.0	 0.0	 3	   0.000000	   0.000000	   0.000000; % NG
	2	 0.0	 0.0	 3	   0.013450	  20.970000	  -1.891000; % NG
	2	 0.0	 0.0	 3	   0.016020	  17.960000	  -1.930000; % NG
	2	 0.0	 0.0	 3	   0.016900	  19.410000	  -1.902000; % NG
	2	 0.0	 0.0	 3	   0.000000	   0.000000	   0.000000; % COW
	2	 0.0	 0.0	 3	   0.000000	   0.000000	   0.000000; % PEL
	2	 0.0	 0.0	 3	   0.000000	   0.000000	   0.000000; % COW
	2	 0.0	 0.0	 3	   0.000000	   0.000000	   0.000000; % NG
	2	 0.0	 0.0	 3	   0.000000	   0.000000	   0.000000; % NG
	2	 0.0	 0.0	 3	   0.000000	   0.000000	   0.000000; % NG
	2	 0.0	 0.0	 3	   0.000000	   0.000000	   0.000000; % PEL
	2	 0.0	 0.0	 3	   0.000000	   0.000000	   0.000000; % NG
	2	 0.0	 0.0	 3	   0.000000	   0.000000	   0.000000; % NG
	2	 0.0	 0.0	 3	   0.000000	   0.000000	   0.000000; % NG
	2	 0.0	 0.0	 3	   0.000000	   0.000000	   0.000000; % NG
	2	 0.0	 0.0	 3	   0.000000	   0.000000	   0.000000; % NG
	2	 0.0	 0.0	 3	   0.000000	   0.000000	   0.000000; % NG
	2	 0.0	 0.0	 3	   0.000000	   0.000000	   0.000000; % NG
	2	 0.0	 0.0	 3	   0.000000	   0.000000	   0.000000; % NG
	2	 0.0	 0.0	 3	   0.000000	   0.000000	   0.000000; % NG
	2	 0.0	 0.0	 3	   0.000000	   0.000000	   0.000000; % NG
	2	 0.0	 0.0	 3	   0.000000	   0.000000	   0.000000; % NG
	2	 0.0	 0.0	 3	   0.000000	   0.000000	   0.000000; % NG
	2	 0.0	 0.0	 3	   0.000000	   0.000000	   0.000000; % NG
	2	 0.0	 0.0	 3	   0.000000	   0.000000	   0.000000; % NG
	2	 0.0	 0.0	 3	   0.000000	   0.000000	   0.000000; % NG
	2	 0.0	 0.0	 3	   0.000000	   0.000000	   0.000000; % NG
	2	 0.0	 0.0	 3	   0.000000	   0.000000	   0.000000; % PEL
	2	 0.0	 0.0	 3	   0.000000	   0.000000	   0.000000; % NG
	2	 0.0	 0.0	 3	   0.000000	   0.000000	   0.000000; % NG
	2	 0.0	 0.0	 3	   0.000000	   0.000000	   0.000000; % NG
	2	 0.0	 0.0	 3	   0.000000	   0.000000	   0.000000; % COW
	2	 0.0	 0.0	 3	   0.000000	   0.000000	   0.000000; % COW
	2	 0.0	 0.0	 3	   0.000000	   0.000000	   0.000000; % NG
	2	 0.0	 0.0	 3	   0.000000	   0.000000	   0.000000; % NG
	2	 0.0	 0.0	 3	   0.000000	   0.000000	   0.000000; % NG
	2	 0.0	 0.0	 3	   0.000000	   0.000000	   0.000000; % NG
	2	 0.0	 0.0	 3	   0.000000	   0.000000	   0.000000; % PEL
	2	 0.0	 0.0	 3	   0.000000	   0.000000	   0.000000; % COW
	2	 0.0	 0.0	 3	   0.000000	   0.000000	   0.000000; % NG
	2	 0.0	 0.0	 3	   0.000000	   0.000000	   0.000000; % PEL
	2	 0.0	 0.0	 3	   0.000000	   0.000000	   0.000000; % PEL
	2	 0.0	 0.0	 3	   0.000000	   0.000000	   0.000000; % PEL
	2	 0.0	 0.0	 3	   0.000000	   0.000000	   0.000000; % PEL
	2	 0.0	 0.0	 3	   0.000000	   0.000000	   0.000000; % PEL
	2	 0.0	 0.0	 3	   0.000000	   0.000000	   0.000000; % NG
	2	 0.0	 0.0	 3	   0.000000	   0.000000	   0.000000; % NG
	2	 0.0	 0.0	 3	   0.000000	   0.000000	   0.000000; % NG
	2	 0.0	 0.0	 3	   0.000000	   0.000000	   0.000000; % COW
	2	 0.0	 0.0	 3	   0.000000	   0.000000	   0.000000; % NG
	2	 0.0	 0.0	 3	   0.000000	   0.000000	   0.000000; % NG
	2	 0.0	 0.0	 3	   0.000000	   0.000000	   0.000000; % NG
	2	 0.0	 0.0	 3	   0.000000	   0.000000	   0.000000; % NG
	2	 0.0	 0.0	 3	   0.000000	   0.000000	   0.000000; % COW
	2	 0.0	 0.0	 3	   0.000000	  17.310000	   0.000000; % PEL
	2	 0.0	 0.0	 3	   0.000000	  17.190000	   0.000000; % NG
	2	 0.0	 0.0	 3	   0.000000	  14.760000	  -5.365000; % PEL
	2	 0.0	 0.0	 3	   0.000000	  19.350000	  -6.316000; % NG
	2	 0.0	 0.0	 3	   0.000000	   0.000000	   0.000000; % PEL
	2	 0.0	 0.0	 3	   0.000000	   0.000000	   0.000000; % NG
	2	 0.0	 0.0	 3	   0.000000	   0.000000	   0.000000; % NG
	2	 0.0	 0.0	 3	   0.000000	   0.000000	   0.000000; % NG
	2	 0.0	 0.0	 3	   0.000000	   0.000000	   0.000000; % NG
	2	 0.0	 0.0	 3	   0.000000	   0.000000	   0.000000; % NG
	2	 0.0	 0.0	 3	   0.000000	   0.000000	   0.000000; % NG
	2	 0.0	 0.0	 3	   0.000000	   0.000000	   0.000000; % NG
	2	 0.0	 0.0	 3	   0.000000	   0.000000	   0.000000; % COW
	2	 0.0	 0.0	 3	   0.000000	   0.000000	   0.000000; % NG
	2	 0.0	 0.0	 3	   0.000000	   0.000000	   0.000000; % NG
	2	 0.0	 0.0	 3	   0.000000	   0.000000	   0.000000; % PEL
	2	 0.0	 0.0	 3	   0.000000	   0.000000	   0.000000; % NG
	2	 0.0	 0.0	 3	   0.000000	   0.000000	   0.000000; % NG
	2	 0.0	 0.0	 3	   0.000000	   0.000000	   0.000000; % NG
	2	 0.0	 0.0	 3	   0.000000	   0.000000	   0.000000; % PEL
	2	 0.0	 0.0	 3	   0.000000	   0.000000	   0.000000; % PEL
	2	 0.0	 0.0	 3	   0.000000	   0.000000	   0.000000; % PEL
	2	 0.0	 0.0	 3	   0.000000	   0.000000	   0.000000; % NG
	2	 0.0	 0.0	 3	   0.000000	   0.000000	   0.000000; % NG
	2	 0.0	 0.0	 3	   0.000000	   0.000000	   0.000000; % COW
	2	 0.0	 0.0	 3	   0.000000	   0.000000	   0.000000; % PEL
	2	 0.0	 0.0	 3	   0.000000	   0.000000	   0.000000; % COW
	2	 0.0	 0.0	 3	   0.000000	   0.000000	   0.000000; % PEL
	2	 0.0	 0.0	 3	   0.000000	   0.000000	   0.000000; % NG
	2	 0.0	 0.0	 3	   0.000000	   0.000000	   0.000000; % PEL
	2	 0.0	 0.0	 3	   0.000000	   0.000000	   0.000000; % PEL
	2	 0.0	 0.0	 3	   0.000000	   0.000000	   0.000000; % PEL
	2	 0.0	 0.0	 3	   0.000000	   0.000000	   0.000000; % PEL
	2	 0.0	 0.0	 3	   0.000000	   0.000000	   0.000000; % PEL
	2	 0.0	 0.0	 3	   0.000000	   0.000000	   0.000000; % PEL
	2	 0.0	 0.0	 3	   0.000000	   0.000000	   0.000000; % NG
	2	 0.0	 0.0	 3	   0.000000	  13.780000	   0.000000; % NG
	2	 0.0	 0.0	 3	   0.000000	  14.700000	   0.000000; % PEL
	2	 0.0	 0.0	 3	   0.000000	  14.070000	   0.000000; % NG
	2	 0.0	 0.0	 3	   0.000000	  14.240000	   0.000000; % NG
	2	 0.0	 0.0	 3	   0.000000	  17.470000	   0.000000; % NG
	2	 0.0	 0.0	 3	   0.000000	  16.730000	   0.000000; % PEL
	2	 0.0	 0.0	 3	   0.000000	   0.000000	   0.000000; % PEL
	2	 0.0	 0.0	 3	   0.000000	   0.000000	   0.000000; % NG
	2	 0.0	 0.0	 3	   0.000000	   0.000000	   0.000000; % PEL
	2	 0.0	 0.0	 3	   0.000000	   0.000000	   0.000000; % PEL
	2	 0.0	 0.0	 3	   0.000000	   0.000000	   0.000000; % PEL
	2	 0.0	 0.0	 3	   0.000000	   0.000000	   0.000000; % PEL
	2	 0.0	 0.0	 3	   0.000000	   0.000000	   0.000000; % NG
	2	 0.0	 0.0	 3	   0.000000	   0.000000	   0.000000; % NG
	2	 0.0	 0.0	 3	   0.000000	   0.000000	   0.000000; % PEL
	2	 0.0	 0.0	 3	   0.000000	   0.000000	   0.000000; % NG
	2	 0.0	 0.0	 3	   0.018420	  19.980000	  -2.245000; % NG
	2	 0.0	 0.0	 3	   0.020850	  17.960000	  -1.902000; % NG
	2	 0.0	 0.0	 3	   0.014940	  16.540000	  -1.853000; % NG
	2	 0.0	 0.0	 3	   0.000000	   0.000000	   0.000000; % COW
	2	 0.0	 0.0	 3	   0.000000	   0.000000	   0.000000; % NG
	2	 0.0	 0.0	 3	   0.000000	   0.000000	   0.000000; % PEL
	2	 0.0	 0.0	 3	   0.000000	   0.000000	   0.000000; % NG
	2	 0.0	 0.0	 3	   0.000000	  17.080000	 -21.380000; % NG
	2	 0.0	 0.0	 3	   0.016290	  18.770000	  -2.089000; % COW
	2	 0.0	 0.0	 3	   0.000000	   0.000000	   0.000000; % NG
	2	 0.0	 0.0	 3	   0.000000	   0.000000	   0.000000; % PEL
	2	 0.0	 0.0	 3	   0.000000	   0.000000	   0.000000; % NG
	2	 0.0	 0.0	 3	   0.000000	   0.000000	   0.000000; % PEL
	2	 0.0	 0.0	 3	   0.000000	   0.000000	   0.000000; % NG
	2	 0.0	 0.0	 3	   0.000000	   0.000000	   0.000000; % NG
	2	 0.0	 0.0	 3	   0.000000	   0.000000	   0.000000; % NG
	2	 0.0	 0.0	 3	   0.000000	   0.000000	   0.000000; % NG
	2	 0.0	 0.0	 3	   0.000000	   0.000000	   0.000000; % COW
	2	 0.0	 0.0	 3	   0.000000	   0.000000	   0.000000; % COW
	2	 0.0	 0.0	 3	   0.000000	   0.000000	   0.000000; % NG
	2	 0.0	 0.0	 3	   0.000000	   0.000000	   0.000000; % NG
	2	 0.0	 0.0	 3	   0.000000	   0.000000	   0.000000; % NG
	2	 0.0	 0.0	 3	   0.000000	   0.000000	   0.000000; % NG
	2	 0.0	 0.0	 3	   0.015380	  16.330000	  -1.218000; % NG
	2	 0.0	 0.0	 3	   0.016080	  17.500000	  -1.364000; % NG
	2	 0.0	 0.0	 3	   0.000000	  14.370000	   0.000000; % COW
	2	 0.0	 0.0	 3	   0.000000	  18.160000	 -39.490000; % PEL
	2	 0.0	 0.0	 3	   0.000000	  20.240000	 -33.310000; % NG
	2	 0.0	 0.0	 3	   0.000000	  20.200000	 -45.180000; % NG
	2	 0.0	 0.0	 3	   0.000000	  18.110000	 -41.860000; % NG
	2	 0.0	 0.0	 3	   0.011770	  15.660000	   0.000000; % COW
	2	 0.0	 0.0	 3	   0.000000	  19.860000	   0.000000; % NG
	2	 0.0	 0.0	 3	   0.000000	   0.000000	   0.000000; % COW
	2	 0.0	 0.0	 3	   0.000000	   0.000000	   0.000000; % PEL
	2	 0.0	 0.0	 3	   0.000000	   0.000000	   0.000000; % PEL
	2	 0.0	 0.0	 3	   0.000000	   0.000000	   0.000000; % NG
	2	 0.0	 0.0	 3	   0.000000	   0.000000	   0.000000; % NG
	2	 0.0	 0.0	 3	   0.000000	   0.000000	   0.000000; % NG
	2	 0.0	 0.0	 3	   0.000000	   0.000000	   0.000000; % PEL
	2	 0.0	 0.0	 3	   0.000000	   0.000000	   0.000000; % PEL
	2	 0.0	 0.0	 3	   0.000000	   0.000000	   0.000000; % PEL
	2	 0.0	 0.0	 3	   0.000000	   0.000000	   0.000000; % NG
	2	 0.0	 0.0	 3	   0.000000	   0.000000	   0.000000; % NG
	2	 0.0	 0.0	 3	   0.000000	   0.000000	   0.000000; % NG
	2	 0.0	 0.0	 3	   0.000000	   0.000000	   0.000000; % NG
	2	 0.0	 0.0	 3	   0.000000	   0.000000	   0.000000; % NG
	2	 0.0	 0.0	 3	   0.000000	   0.000000	   0.000000; % NG
	2	 0.0	 0.0	 3	   0.000000	   0.000000	   0.000000; % NG
	2	 0.0	 0.0	 3	   0.000000	   0.000000	   0.000000; % NG
	2	 0.0	 0.0	 3	   0.000000	   0.000000	   0.000000; % NG
	2	 0.0	 0.0	 3	   0.000000	   0.000000	   0.000000; % NG
	2	 0.0	 0.0	 3	   0.000000	   0.000000	   0.000000; % PEL
	2	 0.0	 0.0	 3	   0.000000	   0.000000	   0.000000; % PEL
	2	 0.0	 0.0	 3	   0.000000	   0.000000	   0.000000; % PEL
	2	 0.0	 0.0	 3	   0.000000	   0.000000	   0.000000; % PEL
	2	 0.0	 0.0	 3	   0.000000	   0.000000	   0.000000; % PEL
	2	 0.0	 0.0	 3	   0.000000	   0.000000	   0.000000; % COW
	2	 0.0	 0.0	 3	   0.000000	   0.000000	   0.000000; % NG
	2	 0.0	 0.0	 3	   0.000000	  15.000000	   0.000000; % NG
	2	 0.0	 0.0	 3	   0.000000	  17.120000	   0.000000; % PEL
	2	 0.0	 0.0	 3	   0.000000	  15.830000	  -4.735000; % NG
	2	 0.0	 0.0	 3	   0.000000	   0.000000	   0.000000; % NG
	2	 0.0	 0.0	 3	   0.000000	   0.000000	   0.000000; % NG
	2	 0.0	 0.0	 3	   0.000000	   0.000000	   0.000000; % NG
	2	 0.0	 0.0	 3	   0.000000	   0.000000	   0.000000; % PEL
	2	 0.0	 0.0	 3	   0.000000	   0.000000	   0.000000; % PEL
	2	 0.0	 0.0	 3	   0.000000	   0.000000	   0.000000; % PEL
	2	 0.0	 0.0	 3	   0.000000	   0.000000	   0.000000; % PEL
	2	 0.0	 0.0	 3	   0.000000	   0.000000	   0.000000; % PEL
	2	 0.0	 0.0	 3	   0.000000	   0.000000	   0.000000; % PEL
	2	 0.0	 0.0	 3	   0.000000	   0.000000	   0.000000; % PEL
	2	 0.0	 0.0	 3	   0.000000	   0.000000	   0.000000; % NG
	2	 0.0	 0.0	 3	   0.000000	   0.000000	   0.000000; % NG
	2	 0.0	 0.0	 3	   0.000000	   0.000000	   0.000000; % PEL
	2	 0.0	 0.0	 3	   0.000000	  16.430000	 -21.170000; % NG
	2	 0.0	 0.0	 3	   0.000000	  16.430000	   0.000000; % COW
	2	 0.0	 0.0	 3	   0.000000	   0.000000	   0.000000; % NG
	2	 0.0	 0.0	 3	   0.000000	   0.000000	   0.000000; % COW
	2	 0.0	 0.0	 3	   0.000000	   0.000000	   0.000000; % COW
	2	 0.0	 0.0	 3	   0.000000	   0.000000	   0.000000; % NG
	2	 0.0	 0.0	 3	   0.000000	   0.000000	   0.000000; % NG
	2	 0.0	 0.0	 3	   0.000000	   0.000000	   0.000000; % COW
...
];

%% branch data
%	fbus	tbus	r	x	b	rateA	rateB	rateC	ratio	angle	status	angmin	angmax
mpc.branch = [
	1	 2	 0.0272635	 0.14777	 0.0399654	 194.5	 194.5	 194.5	 0.0	 0.0	 1	 -30.0	 30.0;
	3	 1	 0.0113837	 0.0721098	 0.0306593	 196.3	 196.3	 196.3	 0.0	 0.0	 1	 -30.0	 30.0;
	4	 3	 0.00339302	 0.0202744	 0.00917669	 199.7	 199.7	 199.7	 0.0	 0.0	 1	 -30.0	 30.0;
	5	 6	 0.000235779	 0.00102372	 0.0	 99999.0	 99999.0	 99999.0	 0.0	 0.0	 1	 -30.0	 30.0;
	5	 7	 0.000274856	 0.00114808	 0.0	 99999.0	 99999.0	 99999.0	 0.0	 0.0	 1	 -30.0	 30.0;
	7	 20	 0.0109356	 0.0562625	 0.022652	 213.7	 213.7	 213.7	 0.0	 0.0	 1	 -30.0	 30.0;
	7	 25	 0.0181525	 0.117342	 0.0292627	 226.4	 226.4	 226.4	 0.0	 0.0	 1	 -30.0	 30.0;
	7	 39	 0.0146267	 0.101441	 0.0300516	 195.0	 195.0	 195.0	 0.0	 0.0	 1	 -30.0	 30.0;
	8	 9	 0.000228649	 0.00117253	 0.0	 99999.0	 99999.0	 99999.0	 0.0	 0.0	 1	 -30.0	 30.0;
	8	 10	 0.000241551	 0.00103193	 0.0	 99999.0	 99999.0	 99999.0	 0.0	 0.0	 1	 -30.0	 30.0;
	9	 15	 0.00202418	 0.0110654	 0.00336027	 175.7	 175.7	 175.7	 0.0	 0.0	 1	 -30.0	 30.0;
	11	 12	 0.000293247	 0.00104515	 0.0	 99999.0	 99999.0	 99999.0	 0.0	 0.0	 1	 -30.0	 30.0;
	11	 13	 0.000290136	 0.00113652	 0.0	 99999.0	 99999.0	 99999.0	 0.0	 0.0	 1	 -30.0	 30.0;
	13	 2	 0.0103077	 0.0768946	 0.0230789	 188.5	 188.5	 188.5	 0.0	 0.0	 1	 -30.0	 30.0;
	14	 15	 0.000240318	 0.00107129	 0.0	 99999.0	 99999.0	 99999.0	 0.0	 0.0	 1	 -30.0	 30.0;
	14	 16	 0.000294749	 0.00101159	 0.0	 99999.0	 99999.0	 99999.0	 0.0	 0.0	 1	 -30.0	 30.0;
	14	 17	 0.000213734	 0.00114931	 0.0	 99999.0	 99999.0	 99999.0	 0.0	 0.0	 1	 -30.0	 30.0;
	15	 13	 0.00854831	 0.0396734	 0.0108002	 172.2	 172.2	 172.2	 0.0	 0.0	 1	 -30.0	 30.0;
	18	 19	 0.000233058	 0.00107068	 0.0	 99999.0	 99999.0	 99999.0	 0.0	 0.0	 1	 -30.0	 30.0;
	18	 20	 0.000221237	 0.00106592	 0.0	 99999.0	 99999.0	 99999.0	 0.0	 0.0	 1	 -30.0	 30.0;
	18	 21	 0.000223246	 0.00117177	 0.0	 99999.0	 99999.0	 99999.0	 0.0	 0.0	 1	 -30.0	 30.0;
	20	 22	 0.00183778	 0.00988438	 0.00526795	 198.0	 198.0	 198.0	 0.0	 0.0	 1	 -30.0	 30.0;
	23	 34	 0.00993726	 0.0711268	 0.0198342	 232.2	 232.2	 232.2	 0.0	 0.0	 1	 -30.0	 30.0;
	23	 67	 0.0150706	 0.0831472	 0.0510316	 235.3	 235.3	 235.3	 0.0	 0.0	 1	 -30.0	 30.0;
	24	 25	 0.000296363	 0.00101671	 0.0	 99999.0	 99999.0	 99999.0	 0.0	 0.0	 1	 -30.0	 30.0;
	26	 27	 0.000263167	 0.00107213	 0.0	 99999.0	 99999.0	 99999.0	 0.0	 0.0	 1	 -30.0	 30.0;
	26	 28	 0.000260676	 0.00110676	 0.0	 99999.0	 99999.0	 99999.0	 0.0	 0.0	 1	 -30.0	 30.0;
	28	 38	 0.00792844	 0.038193	 0.0114582	 181.0	 181.0	 181.0	 0.0	 0.0	 1	 -30.0	 30.0;
	29	 28	 0.00500908	 0.030627	 0.00999978	 171.9	 171.9	 171.9	 0.0	 0.0	 1	 -30.0	 30.0;
	29	 30	 0.000276582	 0.00116564	 0.0	 99999.0	 99999.0	 99999.0	 0.0	 0.0	 1	 -30.0	 30.0;
	29	 38	 0.00323569	 0.017757	 0.00675138	 184.4	 184.4	 184.4	 0.0	 0.0	 1	 -30.0	 30.0;
	31	 32	 0.000248262	 0.00102108	 0.0	 99999.0	 99999.0	 99999.0	 0.0	 0.0	 1	 -30.0	 30.0;
	33	 34	 0.00025416	 0.0011124	 0.0	 99999.0	 99999.0	 99999.0	 0.0	 0.0	 1	 -30.0	 30.0;
	33	 35	 0.00028584	 0.00102513	 0.0	 99999.0	 99999.0	 99999.0	 0.0	 0.0	 1	 -30.0	 30.0;
	36	 31	 0.00373217	 0.0258558	 0.0151059	 181.1	 181.1	 181.1	 0.0	 0.0	 1	 -30.0	 30.0;
	36	 67	 0.0118595	 0.0609168	 0.02453	 195.1	 195.1	 195.1	 0.0	 0.0	 1	 -30.0	 30.0;
	37	 38	 0.000295744	 0.00108145	 0.0	 99999.0	 99999.0	 99999.0	 0.0	 0.0	 1	 -30.0	 30.0;
	38	 52	 0.0050569	 0.0239615	 0.0334364	 183.7	 183.7	 183.7	 0.0	 0.0	 1	 -30.0	 30.0;
	38	 58	 0.0209064	 0.110895	 0.0358414	 203.7	 203.7	 203.7	 0.0	 0.0	 1	 -30.0	 30.0;
	39	 9	 0.0154259	 0.0770637	 0.0274455	 192.7	 192.7	 192.7	 0.0	 0.0	 1	 -30.0	 30.0;
	39	 40	 0.000255113	 0.00106022	 0.0	 99999.0	 99999.0	 99999.0	 0.0	 0.0	 1	 -30.0	 30.0;
	41	 42	 0.00300978	 0.0164175	 0.00456298	 212.1	 212.1	 212.1	 0.0	 0.0	 1	 -30.0	 30.0;
	41	 45	 0.00401174	 0.022881	 0.0148951	 220.5	 220.5	 220.5	 0.0	 0.0	 1	 -30.0	 30.0;
	42	 22	 0.00322686	 0.0204235	 0.0141366	 194.6	 194.6	 194.6	 0.0	 0.0	 1	 -30.0	 30.0;
	43	 44	 0.00022617	 0.0011029	 0.0	 99999.0	 99999.0	 99999.0	 0.0	 0.0	 1	 -30.0	 30.0;
	43	 45	 0.000218641	 0.00113473	 0.0	 99999.0	 99999.0	 99999.0	 0.0	 0.0	 1	 -30.0	 30.0;
	45	 54	 0.00842829	 0.0443038	 0.0155786	 210.6	 210.6	 210.6	 0.0	 0.0	 1	 -30.0	 30.0;
	46	 36	 0.00484947	 0.0273324	 0.00735161	 175.2	 175.2	 175.2	 0.0	 0.0	 1	 -30.0	 30.0;
	47	 48	 0.00480948	 0.0326325	 0.0145874	 188.9	 188.9	 188.9	 0.0	 0.0	 1	 -30.0	 30.0;
	47	 87	 0.0121747	 0.0916921	 0.0260095	 202.3	 202.3	 202.3	 0.0	 0.0	 1	 -30.0	 30.0;
	48	 4	 0.0180487	 0.133765	 0.0290435	 194.4	 194.4	 194.4	 0.0	 0.0	 1	 -30.0	 30.0;
	48	 51	 0.00276034	 0.018834	 0.00348461	 204.9	 204.9	 204.9	 0.0	 0.0	 1	 -30.0	 30.0;
	49	 50	 0.000262796	 0.00111647	 0.0	 99999.0	 99999.0	 99999.0	 0.0	 0.0	 1	 -30.0	 30.0;
	49	 51	 0.000274712	 0.0010406	 0.0	 99999.0	 99999.0	 99999.0	 0.0	 0.0	 1	 -30.0	 30.0;
	51	 4	 0.0177994	 0.0938833	 0.0440444	 208.5	 208.5	 208.5	 0.0	 0.0	 1	 -30.0	 30.0;
	52	 46	 0.00847341	 0.0504615	 0.0151414	 170.1	 170.1	 170.1	 0.0	 0.0	 1	 -30.0	 30.0;
	53	 56	 0.0026986	 0.0170124	 0.00543622	 187.7	 187.7	 187.7	 0.0	 0.0	 1	 -30.0	 30.0;
	54	 55	 0.000267535	 0.00102944	 0.0	 99999.0	 99999.0	 99999.0	 0.0	 0.0	 1	 -30.0	 30.0;
	56	 54	 0.00136943	 0.00881106	 0.00151099	 194.5	 194.5	 194.5	 0.0	 0.0	 1	 -30.0	 30.0;
	57	 53	 0.00223348	 0.0145509	 0.00856153	 208.2	 208.2	 208.2	 0.0	 0.0	 1	 -30.0	 30.0;
	57	 2895	 0.0118735	 0.066884	 0.0198422	 130.2	 130.2	 130.2	 0.0	 0.0	 1	 -30.0	 30.0;
	58	 59	 0.000256747	 0.00108981	 0.0	 99999.0	 99999.0	 99999.0	 0.0	 0.0	 1	 -30.0	 30.0;
	60	 61	 0.000275762	 0.0010857	 0.0	 99999.0	 99999.0	 99999.0	 0.0	 0.0	 1	 -30.0	 30.0;
	61	 64	 0.00580274	 0.0266296	 0.015816	 248.0	 248.0	 248.0	 0.0	 0.0	 1	 -30.0	 30.0;
	62	 63	 0.000222846	 0.0010645	 0.0	 99999.0	 99999.0	 99999.0	 0.0	 0.0	 1	 -30.0	 30.0;
	62	 64	 0.000229604	 0.00118248	 0.0	 99999.0	 99999.0	 99999.0	 0.0	 0.0	 1	 -30.0	 30.0;
	64	 57	 0.00310946	 0.0155991	 0.00992615	 225.1	 225.1	 225.1	 0.0	 0.0	 1	 -30.0	 30.0;
	64	 2895	 0.00494029	 0.0325133	 0.0258559	 201.0	 201.0	 201.0	 0.0	 0.0	 1	 -30.0	 30.0;
	65	 61	 0.00516397	 0.0288223	 0.00962152	 220.1	 220.1	 220.1	 0.0	 0.0	 1	 -30.0	 30.0;
	66	 68	 0.000220999	 0.00107126	 0.0	 99999.0	 99999.0	 99999.0	 0.0	 0.0	 1	 -30.0	 30.0;
	66	 69	 0.000261975	 0.00107755	 0.0	 99999.0	 99999.0	 99999.0	 0.0	 0.0	 1	 -30.0	 30.0;
	66	 70	 0.000256828	 0.00113082	 0.0	 99999.0	 99999.0	 99999.0	 0.0	 0.0	 1	 -30.0	 30.0;
	67	 72	 0.00905639	 0.0461122	 0.0177363	 229.9	 229.9	 229.9	 0.0	 0.0	 1	 -30.0	 30.0;
	69	 5279	 0.00205026	 0.0221739	 0.400221	 1017.2	 1017.2	 1017.2	 0.0	 0.0	 1	 -30.0	 30.0;
	71	 41	 0.0100337	 0.0706134	 0.0310413	 229.4	 229.4	 229.4	 0.0	 0.0	 1	 -30.0	 30.0;
	71	 72	 0.00367941	 0.024408	 0.0235596	 232.5	 232.5	 232.5	 0.0	 0.0	 1	 -30.0	 30.0;
	72	 90	 0.0147962	 0.0983813	 0.0211675	 181.8	 181.8	 181.8	 0.0	 0.0	 1	 -30.0	 30.0;
	73	 61	 0.00945833	 0.04672	 0.0128351	 225.1	 225.1	 225.1	 0.0	 0.0	 1	 -30.0	 30.0;
	73	 74	 0.00557959	 0.0348959	 0.0168342	 222.5	 222.5	 222.5	 0.0	 0.0	 1	 -30.0	 30.0;
	74	 88	 0.0192578	 0.097812	 0.0965501	 205.7	 205.7	 205.7	 0.0	 0.0	 1	 -30.0	 30.0;
	74	 2895	 0.00971318	 0.0370195	 0.0191378	 213.3	 213.3	 213.3	 0.0	 0.0	 1	 -30.0	 30.0;
	75	 76	 0.000287465	 0.00110163	 0.0	 99999.0	 99999.0	 99999.0	 0.0	 0.0	 1	 -30.0	 30.0;
	75	 77	 0.000288199	 0.00114788	 0.0	 99999.0	 99999.0	 99999.0	 0.0	 0.0	 1	 -30.0	 30.0;
	75	 78	 0.000292492	 0.00116271	 0.0	 99999.0	 99999.0	 99999.0	 0.0	 0.0	 1	 -30.0	 30.0;
	77	 79	 0.00167646	 0.00892587	 0.00940781	 219.2	 219.2	 219.2	 0.0	 0.0	 1	 -30.0	 30.0;
	77	 92	 0.00228954	 0.0132	 0.013492	 260.2	 260.2	 260.2	 0.0	 0.0	 1	 -30.0	 30.0;
	79	 80	 0.000274577	 0.00110522	 0.0	 99999.0	 99999.0	 99999.0	 0.0	 0.0	 1	 -30.0	 30.0;
	79	 81	 0.00270733	 0.0193981	 0.00787923	 213.5	 213.5	 213.5	 0.0	 0.0	 1	 -30.0	 30.0;
	79	 2636	 0.0030448	 0.0213698	 0.00858524	 248.7	 248.7	 248.7	 0.0	 0.0	 1	 -30.0	 30.0;
	81	 61	 0.00539911	 0.0292053	 0.0210788	 251.3	 251.3	 251.3	 0.0	 0.0	 1	 -30.0	 30.0;
	81	 65	 0.00525124	 0.0283925	 0.0087728	 226.4	 226.4	 226.4	 0.0	 0.0	 1	 -30.0	 30.0;
	82	 87	 0.00179376	 0.0148562	 0.00331543	 220.9	 220.9	 220.9	 0.0	 0.0	 1	 -30.0	 30.0;
	83	 82	 0.00165531	 0.00984154	 0.0145655	 236.3	 236.3	 236.3	 0.0	 0.0	 1	 -30.0	 30.0;
	83	 84	 0.00021367	 0.00105025	 0.0	 99999.0	 99999.0	 99999.0	 0.0	 0.0	 1	 -30.0	 30.0;
	83	 120	 0.008186	 0.0413229	 0.0281057	 245.2	 245.2	 245.2	 0.0	 0.0	 1	 -30.0	 30.0;
	85	 86	 0.000297915	 0.00102214	 0.0	 99999.0	 99999.0	 99999.0	 0.0	 0.0	 1	 -30.0	 30.0;
	85	 87	 0.000232392	 0.00118541	 0.0	 99999.0	 99999.0	 99999.0	 0.0	 0.0	 1	 -30.0	 30.0;
	87	 51	 0.0114646	 0.0539021	 0.0407859	 227.0	 227.0	 227.0	 0.0	 0.0	 1	 -30.0	 30.0;
	87	 74	 0.0135517	 0.0770021	 0.0893547	 225.4	 225.4	 225.4	 0.0	 0.0	 1	 -30.0	 30.0;
	88	 82	 0.00332317	 0.0247662	 0.00437626	 188.4	 188.4	 188.4	 0.0	 0.0	 1	 -30.0	 30.0;
	88	 87	 0.00514988	 0.028742	 0.00869016	 204.5	 204.5	 204.5	 0.0	 0.0	 1	 -30.0	 30.0;
	89	 58	 0.00675474	 0.0405749	 0.0260046	 207.9	 207.9	 207.9	 0.0	 0.0	 1	 -30.0	 30.0;
	90	 146	 0.0142281	 0.0738892	 0.0199812	 188.3	 188.3	 188.3	 0.0	 0.0	 1	 -30.0	 30.0;
	91	 124	 0.00784814	 0.0584211	 0.0228521	 240.8	 240.8	 240.8	 0.0	 0.0	 1	 -30.0	 30.0;
	92	 93	 0.00591371	 0.0356731	 0.0170562	 255.1	 255.1	 255.1	 0.0	 0.0	 1	 -30.0	 30.0;
	93	 95	 0.00301221	 0.0179469	 0.0137887	 238.0	 238.0	 238.0	 0.0	 0.0	 1	 -30.0	 30.0;
	94	 95	 0.00151085	 0.00767252	 0.00344515	 222.0	 222.0	 222.0	 0.0	 0.0	 1	 -30.0	 30.0;
	94	 152	 0.0083566	 0.042344	 0.0223516	 232.7	 232.7	 232.7	 0.0	 0.0	 1	 -30.0	 30.0;
	96	 94	 0.00358068	 0.0222702	 0.0134234	 234.3	 234.3	 234.3	 0.0	 0.0	 1	 -30.0	 30.0;
	96	 112	 0.00410932	 0.026859	 0.0143546	 226.9	 226.9	 226.9	 0.0	 0.0	 1	 -30.0	 30.0;
	97	 99	 0.000279319	 0.00118875	 0.0	 99999.0	 99999.0	 99999.0	 0.0	 0.0	 1	 -30.0	 30.0;
	97	 100	 0.000292765	 0.00115984	 0.0	 99999.0	 99999.0	 99999.0	 0.0	 0.0	 1	 -30.0	 30.0;
	97	 101	 0.000209611	 0.00103469	 0.0	 99999.0	 99999.0	 99999.0	 0.0	 0.0	 1	 -30.0	 30.0;
	97	 102	 0.000212516	 0.00107924	 0.0	 99999.0	 99999.0	 99999.0	 0.0	 0.0	 1	 -30.0	 30.0;
	100	 195	 0.000676388	 0.00845757	 0.338719	 1166.2	 1166.2	 1166.2	 0.0	 0.0	 1	 -30.0	 30.0;
	103	 91	 0.00302494	 0.0186989	 0.0192526	 248.2	 248.2	 248.2	 0.0	 0.0	 1	 -30.0	 30.0;
	103	 98	 0.00112597	 0.00770452	 0.00324416	 251.1	 251.1	 251.1	 0.0	 0.0	 1	 -30.0	 30.0;
	104	 106	 0.000281853	 0.00101259	 0.0	 99999.0	 99999.0	 99999.0	 0.0	 0.0	 1	 -30.0	 30.0;
	104	 107	 0.000293028	 0.00101627	 0.0	 99999.0	 99999.0	 99999.0	 0.0	 0.0	 1	 -30.0	 30.0;
	104	 108	 0.000233376	 0.0010201	 0.0	 99999.0	 99999.0	 99999.0	 0.0	 0.0	 1	 -30.0	 30.0;
	104	 109	 0.000286691	 0.00102424	 0.0	 99999.0	 99999.0	 99999.0	 0.0	 0.0	 1	 -30.0	 30.0;
	105	 110	 0.00354138	 0.0170726	 0.0200662	 194.4	 194.4	 194.4	 0.0	 0.0	 1	 -30.0	 30.0;
	105	 182	 0.00740243	 0.0451545	 0.037815	 203.0	 203.0	 203.0	 0.0	 0.0	 1	 -30.0	 30.0;
	110	 111	 0.0123441	 0.0578345	 0.0151121	 157.6	 157.6	 157.6	 0.0	 0.0	 1	 -30.0	 30.0;
	111	 105	 0.00267418	 0.017055	 0.00826641	 196.4	 196.4	 196.4	 0.0	 0.0	 1	 -30.0	 30.0;
	114	 116	 0.000911179	 0.0055895	 0.00237834	 214.6	 214.6	 214.6	 0.0	 0.0	 1	 -30.0	 30.0;
	114	 219	 0.00732598	 0.0427126	 0.0471078	 176.3	 176.3	 176.3	 0.0	 0.0	 1	 -30.0	 30.0;
	115	 117	 0.000294205	 0.00117974	 0.0	 99999.0	 99999.0	 99999.0	 0.0	 0.0	 1	 -30.0	 30.0;
	115	 118	 0.000285933	 0.00101943	 0.0	 99999.0	 99999.0	 99999.0	 0.0	 0.0	 1	 -30.0	 30.0;
	115	 119	 0.000287226	 0.00103247	 0.0	 99999.0	 99999.0	 99999.0	 0.0	 0.0	 1	 -30.0	 30.0;
	116	 120	 0.00166575	 0.00968703	 0.00294853	 232.0	 232.0	 232.0	 0.0	 0.0	 1	 -30.0	 30.0;
	118	 225	 0.000550772	 0.00694234	 0.0711489	 1082.2	 1082.2	 1082.2	 0.0	 0.0	 1	 -30.0	 30.0;
	118	 527	 0.00147554	 0.0183519	 0.33283	 1137.9	 1137.9	 1137.9	 0.0	 0.0	 1	 -30.0	 30.0;
	120	 113	 0.00294467	 0.01365	 0.00704637	 230.8	 230.8	 230.8	 0.0	 0.0	 1	 -30.0	 30.0;
	121	 149	 0.00424646	 0.0241575	 0.0185422	 244.9	 244.9	 244.9	 0.0	 0.0	 1	 -30.0	 30.0;
	122	 123	 0.000284834	 0.00110524	 0.0	 99999.0	 99999.0	 99999.0	 0.0	 0.0	 1	 -30.0	 30.0;
	122	 124	 0.000258744	 0.00110798	 0.0	 99999.0	 99999.0	 99999.0	 0.0	 0.0	 1	 -30.0	 30.0;
	122	 125	 0.000210228	 0.00105956	 0.0	 99999.0	 99999.0	 99999.0	 0.0	 0.0	 1	 -30.0	 30.0;
	124	 127	 0.0035662	 0.0191057	 0.0108626	 268.4	 268.4	 268.4	 0.0	 0.0	 1	 -30.0	 30.0;
	124	 150	 0.0100127	 0.06404	 0.0147109	 226.3	 226.3	 226.3	 0.0	 0.0	 1	 -30.0	 30.0;
	124	 152	 0.00384383	 0.0228885	 0.0312228	 257.0	 257.0	 257.0	 0.0	 0.0	 1	 -30.0	 30.0;
	124	 185	 0.00718296	 0.0413661	 0.0185224	 197.6	 197.6	 197.6	 0.0	 0.0	 1	 -30.0	 30.0;
	126	 128	 0.000286095	 0.00110641	 0.0	 99999.0	 99999.0	 99999.0	 0.0	 0.0	 1	 -30.0	 30.0;
	126	 129	 0.000232372	 0.00117839	 0.0	 99999.0	 99999.0	 99999.0	 0.0	 0.0	 1	 -30.0	 30.0;
	126	 130	 0.000227502	 0.00110434	 0.0	 99999.0	 99999.0	 99999.0	 0.0	 0.0	 1	 -30.0	 30.0;
	127	 121	 0.00314589	 0.0204517	 0.00498603	 251.0	 251.0	 251.0	 0.0	 0.0	 1	 -30.0	 30.0;
	129	 2641	 0.000890902	 0.0115655	 0.233062	 1172.5	 1172.5	 1172.5	 0.0	 0.0	 1	 -30.0	 30.0;
	131	 146	 0.0220676	 0.125856	 0.0274248	 213.8	 213.8	 213.8	 0.0	 0.0	 1	 -30.0	 30.0;
	131	 159	 0.0140605	 0.0801263	 0.083333	 231.1	 231.1	 231.1	 0.0	 0.0	 1	 -30.0	 30.0;
	131	 190	 0.00408795	 0.0219809	 0.00923234	 232.2	 232.2	 232.2	 0.0	 0.0	 1	 -30.0	 30.0;
	132	 5056	 0.00566342	 0.0288446	 0.0236883	 254.9	 254.9	 254.9	 0.0	 0.0	 1	 -30.0	 30.0;
	133	 132	 0.0032323	 0.0235964	 0.0087251	 233.2	 233.2	 233.2	 0.0	 0.0	 1	 -30.0	 30.0;
	133	 134	 0.000249665	 0.00103511	 0.0	 99999.0	 99999.0	 99999.0	 0.0	 0.0	 1	 -30.0	 30.0;
	133	 139	 0.00500397	 0.0234903	 0.00597469	 164.2	 164.2	 164.2	 0.0	 0.0	 1	 -30.0	 30.0;
	133	 177	 0.00381247	 0.0187325	 0.00896581	 208.1	 208.1	 208.1	 0.0	 0.0	 1	 -30.0	 30.0;
	135	 136	 0.000243374	 0.00116752	 0.0	 99999.0	 99999.0	 99999.0	 0.0	 0.0	 1	 -30.0	 30.0;
	135	 2705	 0.00215541	 0.0157473	 0.00643399	 209.2	 209.2	 209.2	 0.0	 0.0	 1	 -30.0	 30.0;
	137	 135	 0.00117042	 0.0059215	 0.0105616	 234.9	 234.9	 234.9	 0.0	 0.0	 1	 -30.0	 30.0;
	138	 140	 0.000253989	 0.00105375	 0.0	 99999.0	 99999.0	 99999.0	 0.0	 0.0	 1	 -30.0	 30.0;
	138	 141	 0.000236936	 0.00117323	 0.0	 99999.0	 99999.0	 99999.0	 0.0	 0.0	 1	 -30.0	 30.0;
	138	 142	 0.000250021	 0.00118636	 0.0	 99999.0	 99999.0	 99999.0	 0.0	 0.0	 1	 -30.0	 30.0;
	139	 137	 0.000505091	 0.00325565	 0.00139651	 251.4	 251.4	 251.4	 0.0	 0.0	 1	 -30.0	 30.0;
	139	 176	 0.00351444	 0.0184983	 0.0414038	 185.7	 185.7	 185.7	 0.0	 0.0	 1	 -30.0	 30.0;
	141	 2708	 0.000314083	 0.00335281	 0.0663746	 1173.6	 1173.6	 1173.6	 0.0	 0.0	 1	 -30.0	 30.0;
	141	 5236	 0.000339663	 0.00436535	 0.0900377	 1225.0	 1225.0	 1225.0	 0.0	 0.0	 1	 -30.0	 30.0;
	143	 168	 0.0036114	 0.0231109	 0.0080403	 221.4	 221.4	 221.4	 0.0	 0.0	 1	 -30.0	 30.0;
	143	 2375	 0.00425708	 0.0255188	 0.0177764	 249.2	 249.2	 249.2	 0.0	 0.0	 1	 -30.0	 30.0;
	143	 2390	 0.00654227	 0.0332532	 0.0102402	 220.9	 220.9	 220.9	 0.0	 0.0	 1	 -30.0	 30.0;
...